   Input file: C:\Users\nswol\Dropbox\Graduate School\Research\UTIG\Projects\2021-Wolfenbarger-Bulk Properties\PHREEQC\ColdChem\Europa\Cl-dominated.pqi
  Output file: C:\Users\nswol\Dropbox\Graduate School\Research\UTIG\Projects\2021-Wolfenbarger-Bulk Properties\PHREEQC\ColdChem\Europa\Cl-dominated.pqo
Database file: C:\Program Files (x86)\USGS\Phreeqc Interactive 3.7.3-15968\database\ColdChem.dat

------------------
Reading data base.
------------------

	SOLUTION_MASTER_SPECIES								
	SOLUTION_SPECIES								
	PHASES								
	PITZER								
------------------------------------
Reading input data for simulation 1.
------------------------------------

	DATABASE C:\Program Files (x86)\USGS\Phreeqc Interactive 3.7.3-15968\database\ColdChem.dat
	TITLE Cl-dominated - ColdChem.dat
	SOLUTION
		units	mol/kgw
			Na	0.0439
			Mg	0.00488	
			Cl	0.04878
			S	0.00244	
	EQUILIBRIUM_PHASES
		Halite		0.0	0.0
		Hydrohalite		0.0	0.0
		Sylvite		0.0	0.0
		Bischofite		0.0	0.0
		MgCl2:8H2O		0.0	0.0
		MgCl2:12H2O		0.0	0.0
		Antarcticite	0.0	0.0
		Tachyhydrite	0.0	0.0
		Carnallite		0.0	0.0
		Thenardite		0.0	0.0
		Na2SO4:7H2O		0.0	0.0
		Mirabilite		0.0	0.0
		Arcanite		0.0	0.0
		Kieserite		0.0	0.0
		Starkeyite		0.0	0.0
		Pentahydrite	0.0	0.0
		Hexahydrite		0.0	0.0
		Epsomite		0.0	0.0
		Meridianiite	0.0	0.0
		Anhydrite		0.0	0.0
		Bassanite		0.0	0.0
		Gypsum		0.0	0.0
		Glaserite		0.0	0.0
		Bloedite		0.0	0.0
		Glauberite		0.0	0.0
		Labile_Salt		0.0	0.0
		Leonite		0.0	0.0
		Picromerite		0.0	0.0
		Langbeinite		0.0	0.0
		Syngenite		0.0	0.0
		Kainite		0.0	0.0
		Polyhalite		0.0	0.0
		Ice(s) 		0.0	0.0
	REACTION_TEMPERATURE
	        0 -40.0 in 401 steps
	END
-----
TITLE
-----

 Cl-dominated - ColdChem.dat

-------------------------------------------
Beginning of initial solution calculations.
-------------------------------------------

Initial solution 1.	

-----------------------------Solution composition------------------------------

	Elements           Molality       Moles

	Cl                4.878e-02   4.878e-02
	Mg                4.880e-03   4.880e-03
	Na                4.390e-02   4.390e-02
	S                 2.440e-03   2.440e-03

----------------------------Description of solution----------------------------

                                       pH  =   7.000    
                                       pe  =   4.000    
                        Activity of water  =   0.998
                 Ionic strength (mol/kgw)  =   6.098e-02
                       Mass of water (kg)  =   1.000e+00
                 Total alkalinity (eq/kg)  =  -5.329e-10
                         Temperature (°C)  =  25.00
                  Electrical balance (eq)  =   5.329e-10
 Percent error, 100*(Cat-|An|)/(Cat+|An|)  =   0.00
                               Iterations  =   5
                         Gamma iterations  =   3
                      Osmotic coefficient  =   0.92587
                                  Total H  = 1.110186e+02
                                  Total O  = 5.551906e+01

----------------------------Distribution of species----------------------------

                                                    Unscaled  Unscaled
                                Unscaled       Log       Log       Log    mole V
   Species          Molality    Activity  Molality  Activity     Gamma    cm³/mol

   H+              1.283e-07   1.000e-07    -6.892    -7.000    -0.108      0.00
   OH-             1.277e-07   9.983e-08    -6.894    -7.001    -0.107     (0)  
   H2O             5.551e+01   9.983e-01     1.744    -0.001     0.000     18.07
Cl            4.878e-02
   Cl-             4.878e-02   3.966e-02    -1.312    -1.402    -0.090     (0)  
Mg            4.880e-03
   Mg+2            4.880e-03   2.024e-03    -2.312    -2.694    -0.382     (0)  
Na            4.390e-02
   Na+             4.390e-02   3.531e-02    -1.358    -1.452    -0.095     (0)  
S(6)          2.440e-03
   SO4-2           2.440e-03   9.056e-04    -2.613    -3.043    -0.430     (0)  

------------------------------Saturation indices-------------------------------

  Phase               SI** log IAP   log K(298 K,   1 atm)

  Bischofite      -10.05     -5.50    4.55  MgCl2:6H2O
  Bloedite         -9.32    -11.69   -2.37  Na2SO4:MgSO4:4H2O
  Epsomite         -3.89     -5.74   -1.85  MgSO4:7H2O
  Halite           -4.44     -2.85    1.59  NaCl
  Hexahydrite      -4.18     -5.74   -1.56  MgSO4:6H2O
  Hydrohalite      -4.43     -2.86    1.57  NaCl:2H2O
  Ice(s)           -0.10     -0.00    0.10  H2O
  Kieserite        -5.69     -5.74   -0.05  MgSO4:H2O
  Meridianiite     -4.48     -5.74   -1.27  MgSO4:11H2O
  MgCl2:12H2O      -8.87     -5.51    3.36  MgCl2:12H2O
  MgCl2:8H2O       -9.64     -5.50    4.14  MgCl2:8H2O
  Mirabilite       -4.73     -5.95   -1.22  Na2SO4:10H2O
  Na2SO4:7H2O      -5.28     -5.95   -0.67  Na2SO4:7H2O
  Pentahydrite     -4.55     -5.74   -1.19  MgSO4:5H2O
  Starkeyite       -4.99     -5.74   -0.75  MgSO4:4H2O
  Thenardite       -5.65     -5.95   -0.30  Na2SO4

**For a gas, SI = log10(fugacity). Fugacity = pressure * phi / 1 atm.
  For ideal gases, phi = 1.

-----------------------------------------
Beginning of batch-reaction calculations.
-----------------------------------------

Reaction step 1.

WARNING: Element Ca is contained in Anhydrite (which has 0.0 mass),	
but is not in solution or other phases.
WARNING: Element Ca is contained in Antarcticite (which has 0.0 mass),	
but is not in solution or other phases.
WARNING: Element K is contained in Arcanite (which has 0.0 mass),	
but is not in solution or other phases.
WARNING: Element Ca is contained in Bassanite (which has 0.0 mass),	
but is not in solution or other phases.
WARNING: Element K is contained in Carnallite (which has 0.0 mass),	
but is not in solution or other phases.
WARNING: Element K is contained in Glaserite (which has 0.0 mass),	
but is not in solution or other phases.
WARNING: Element Ca is contained in Glauberite (which has 0.0 mass),	
but is not in solution or other phases.
WARNING: Element Ca is contained in Gypsum (which has 0.0 mass),	
but is not in solution or other phases.
WARNING: Element K is contained in Kainite (which has 0.0 mass),	
but is not in solution or other phases.
WARNING: Element Ca is contained in Labile_Salt (which has 0.0 mass),	
but is not in solution or other phases.
WARNING: Element K is contained in Langbeinite (which has 0.0 mass),	
but is not in solution or other phases.
WARNING: Element K is contained in Leonite (which has 0.0 mass),	
but is not in solution or other phases.
WARNING: Element K is contained in Picromerite (which has 0.0 mass),	
but is not in solution or other phases.
WARNING: Element Ca is contained in Polyhalite (which has 0.0 mass),	
but is not in solution or other phases.
WARNING: Element K is contained in Polyhalite (which has 0.0 mass),	
but is not in solution or other phases.
WARNING: Element K is contained in Sylvite (which has 0.0 mass),	
but is not in solution or other phases.
WARNING: Element Ca is contained in Syngenite (which has 0.0 mass),	
but is not in solution or other phases.
WARNING: Element K is contained in Syngenite (which has 0.0 mass),	
but is not in solution or other phases.
WARNING: Element Ca is contained in Tachyhydrite (which has 0.0 mass),	
but is not in solution or other phases.
Using solution 1.	
Using pure phase assemblage 1.	
Using temperature 1.	

-------------------------------Phase assemblage--------------------------------

                                                      Moles in assemblage
Phase               SI  log IAP  log K(T, P)   Initial       Final       Delta

Anhydrite            Element not present.    0.000e+00           0   0.000e+00
Antarcticite         Element not present.    0.000e+00           0   0.000e+00
Arcanite             Element not present.    0.000e+00           0   0.000e+00
Bassanite            Element not present.    0.000e+00           0   0.000e+00
Bischofite      -10.26    -5.48      4.78    0.000e+00           0   0.000e+00
Bloedite         -8.81   -11.65     -2.84    0.000e+00           0   0.000e+00
Carnallite           Element not present.    0.000e+00           0   0.000e+00
Epsomite         -3.63    -5.72     -2.09    0.000e+00           0   0.000e+00
Glaserite            Element not present.    0.000e+00           0   0.000e+00
Glauberite           Element not present.    0.000e+00           0   0.000e+00
Gypsum               Element not present.    0.000e+00           0   0.000e+00
Halite           -4.35    -2.85      1.50    0.000e+00           0   0.000e+00
Hexahydrite      -4.13    -5.72     -1.59    0.000e+00           0   0.000e+00
Hydrohalite      -4.11    -2.85      1.26    0.000e+00           0   0.000e+00
Ice(s)           -0.00    -0.00      0.00    0.000e+00           0   0.000e+00
Kainite              Element not present.    0.000e+00           0   0.000e+00
Kieserite        -6.35    -5.71      0.64    0.000e+00           0   0.000e+00
Labile_Salt          Element not present.    0.000e+00           0   0.000e+00
Langbeinite          Element not present.    0.000e+00           0   0.000e+00
Leonite              Element not present.    0.000e+00           0   0.000e+00
Meridianiite     -3.54    -5.72     -2.18    0.000e+00           0   0.000e+00
MgCl2:12H2O      -8.19    -5.49      2.70    0.000e+00           0   0.000e+00
MgCl2:8H2O       -9.40    -5.48      3.92    0.000e+00           0   0.000e+00
Mirabilite       -3.45    -5.94     -2.49    0.000e+00           0   0.000e+00
Na2SO4:7H2O      -4.35    -5.94     -1.59    0.000e+00           0   0.000e+00
Pentahydrite     -4.64    -5.71     -1.08    0.000e+00           0   0.000e+00
Picromerite          Element not present.    0.000e+00           0   0.000e+00
Polyhalite           Element not present.    0.000e+00           0   0.000e+00
Starkeyite       -5.21    -5.71     -0.50    0.000e+00           0   0.000e+00
Sylvite              Element not present.    0.000e+00           0   0.000e+00
Syngenite            Element not present.    0.000e+00           0   0.000e+00
Tachyhydrite         Element not present.    0.000e+00           0   0.000e+00
Thenardite       -5.61    -5.93     -0.32    0.000e+00           0   0.000e+00

-----------------------------Solution composition------------------------------

	Elements           Molality       Moles

	Cl                4.878e-02   4.878e-02
	Mg                4.880e-03   4.880e-03
	Na                4.390e-02   4.390e-02
	S                 2.440e-03   2.440e-03

----------------------------Description of solution----------------------------

                                       pH  =   7.000      Charge balance
                                       pe  =   4.000      Adjusted to redox equilibrium
                        Activity of water  =   0.998
                 Ionic strength (mol/kgw)  =   6.098e-02
                       Mass of water (kg)  =   1.000e+00
                 Total alkalinity (eq/kg)  =  -5.329e-10
                         Temperature (°C)  =   0.00
                  Electrical balance (eq)  =   5.288e-10
 Percent error, 100*(Cat-|An|)/(Cat+|An|)  =   0.00
                               Iterations  =   3
                         Gamma iterations  =   2
                      Osmotic coefficient  =   0.92716
                                  Total H  = 1.110186e+02
                                  Total O  = 5.551906e+01

----------------------------Distribution of species----------------------------

                                                    Unscaled  Unscaled
                                Unscaled       Log       Log       Log    mole V
   Species          Molality    Activity  Molality  Activity     Gamma    cm³/mol

   H+              1.271e-07   1.000e-07    -6.896    -7.000    -0.104      0.00
   OH-             1.266e-07   9.983e-08    -6.898    -7.001    -0.103     (0)  
   H2O             5.551e+01   9.983e-01     1.744    -0.001     0.000     18.02
Cl            4.878e-02
   Cl-             4.878e-02   3.987e-02    -1.312    -1.399    -0.088     (0)  
Mg            4.880e-03
   Mg+2            4.880e-03   2.098e-03    -2.312    -2.678    -0.367     (0)  
Na            4.390e-02
   Na+             4.390e-02   3.547e-02    -1.358    -1.450    -0.093     (0)  
S(6)          2.440e-03
   SO4-2           2.440e-03   9.279e-04    -2.613    -3.033    -0.420     (0)  

------------------------------Saturation indices-------------------------------

  Phase               SI** log IAP   log K(273 K,   1 atm)

  Bischofite      -10.26     -5.48    4.78  MgCl2:6H2O
  Bloedite         -8.81    -11.65   -2.84  Na2SO4:MgSO4:4H2O
  Epsomite         -3.63     -5.72   -2.09  MgSO4:7H2O
  Halite           -4.35     -2.85    1.50  NaCl
  Hexahydrite      -4.13     -5.72   -1.59  MgSO4:6H2O
  Hydrohalite      -4.11     -2.85    1.26  NaCl:2H2O
  Ice(s)           -0.00     -0.00    0.00  H2O
  Kieserite        -6.35     -5.71    0.64  MgSO4:H2O
  Meridianiite     -3.54     -5.72   -2.18  MgSO4:11H2O
  MgCl2:12H2O      -8.19     -5.49    2.70  MgCl2:12H2O
  MgCl2:8H2O       -9.40     -5.48    3.92  MgCl2:8H2O
  Mirabilite       -3.45     -5.94   -2.49  Na2SO4:10H2O
  Na2SO4:7H2O      -4.35     -5.94   -1.59  Na2SO4:7H2O
  Pentahydrite     -4.64     -5.71   -1.08  MgSO4:5H2O
  Starkeyite       -5.21     -5.71   -0.50  MgSO4:4H2O
  Thenardite       -5.61     -5.93   -0.32  Na2SO4

**For a gas, SI = log10(fugacity). Fugacity = pressure * phi / 1 atm.
  For ideal gases, phi = 1.

Reaction step 2.

WARNING: Element Ca is contained in Anhydrite (which has 0.0 mass),	
but is not in solution or other phases.
WARNING: Element Ca is contained in Antarcticite (which has 0.0 mass),	
but is not in solution or other phases.
WARNING: Element K is contained in Arcanite (which has 0.0 mass),	
but is not in solution or other phases.
WARNING: Element Ca is contained in Bassanite (which has 0.0 mass),	
but is not in solution or other phases.
WARNING: Element K is contained in Carnallite (which has 0.0 mass),	
but is not in solution or other phases.
WARNING: Element K is contained in Glaserite (which has 0.0 mass),	
but is not in solution or other phases.
WARNING: Element Ca is contained in Glauberite (which has 0.0 mass),	
but is not in solution or other phases.
WARNING: Element Ca is contained in Gypsum (which has 0.0 mass),	
but is not in solution or other phases.
WARNING: Element K is contained in Kainite (which has 0.0 mass),	
but is not in solution or other phases.
WARNING: Element Ca is contained in Labile_Salt (which has 0.0 mass),	
but is not in solution or other phases.
WARNING: Element K is contained in Langbeinite (which has 0.0 mass),	
but is not in solution or other phases.
WARNING: Element K is contained in Leonite (which has 0.0 mass),	
but is not in solution or other phases.
WARNING: Element K is contained in Picromerite (which has 0.0 mass),	
but is not in solution or other phases.
WARNING: Element Ca is contained in Polyhalite (which has 0.0 mass),	
but is not in solution or other phases.
WARNING: Element K is contained in Polyhalite (which has 0.0 mass),	
but is not in solution or other phases.
WARNING: Element K is contained in Sylvite (which has 0.0 mass),	
but is not in solution or other phases.
WARNING: Element Ca is contained in Syngenite (which has 0.0 mass),	
but is not in solution or other phases.
WARNING: Element K is contained in Syngenite (which has 0.0 mass),	
but is not in solution or other phases.
WARNING: Element Ca is contained in Tachyhydrite (which has 0.0 mass),	
but is not in solution or other phases.
Using solution 1.	
Using pure phase assemblage 1.	
Using temperature 1.	

-------------------------------Phase assemblage--------------------------------

                                                      Moles in assemblage
Phase               SI  log IAP  log K(T, P)   Initial       Final       Delta

Anhydrite            Element not present.    0.000e+00           0   0.000e+00
Antarcticite         Element not present.    0.000e+00           0   0.000e+00
Arcanite             Element not present.    0.000e+00           0   0.000e+00
Bassanite            Element not present.    0.000e+00           0   0.000e+00
Bischofite      -10.26    -5.48      4.78    0.000e+00           0   0.000e+00
Bloedite         -8.81   -11.65     -2.84    0.000e+00           0   0.000e+00
Carnallite           Element not present.    0.000e+00           0   0.000e+00
Epsomite         -3.63    -5.72     -2.09    0.000e+00           0   0.000e+00
Glaserite            Element not present.    0.000e+00           0   0.000e+00
Glauberite           Element not present.    0.000e+00           0   0.000e+00
Gypsum               Element not present.    0.000e+00           0   0.000e+00
Halite           -4.35    -2.85      1.50    0.000e+00           0   0.000e+00
Hexahydrite      -4.13    -5.71     -1.59    0.000e+00           0   0.000e+00
Hydrohalite      -4.11    -2.85      1.26    0.000e+00           0   0.000e+00
Ice(s)           -0.00    -0.00     -0.00    0.000e+00           0   0.000e+00
Kainite              Element not present.    0.000e+00           0   0.000e+00
Kieserite        -6.35    -5.71      0.64    0.000e+00           0   0.000e+00
Labile_Salt          Element not present.    0.000e+00           0   0.000e+00
Langbeinite          Element not present.    0.000e+00           0   0.000e+00
Leonite              Element not present.    0.000e+00           0   0.000e+00
Meridianiite     -3.54    -5.72     -2.18    0.000e+00           0   0.000e+00
MgCl2:12H2O      -8.18    -5.49      2.70    0.000e+00           0   0.000e+00
MgCl2:8H2O       -9.40    -5.48      3.92    0.000e+00           0   0.000e+00
Mirabilite       -3.44    -5.94     -2.50    0.000e+00           0   0.000e+00
Na2SO4:7H2O      -4.35    -5.94     -1.59    0.000e+00           0   0.000e+00
Pentahydrite     -4.64    -5.71     -1.08    0.000e+00           0   0.000e+00
Picromerite          Element not present.    0.000e+00           0   0.000e+00
Polyhalite           Element not present.    0.000e+00           0   0.000e+00
Starkeyite       -5.21    -5.71     -0.50    0.000e+00           0   0.000e+00
Sylvite              Element not present.    0.000e+00           0   0.000e+00
Syngenite            Element not present.    0.000e+00           0   0.000e+00
Tachyhydrite         Element not present.    0.000e+00           0   0.000e+00
Thenardite       -5.61    -5.93     -0.32    0.000e+00           0   0.000e+00

-----------------------------Solution composition------------------------------

	Elements           Molality       Moles

	Cl                4.878e-02   4.878e-02
	Mg                4.880e-03   4.880e-03
	Na                4.390e-02   4.390e-02
	S                 2.440e-03   2.440e-03

----------------------------Description of solution----------------------------

                                       pH  =   7.000      Charge balance
                                       pe  =   4.000      Adjusted to redox equilibrium
                        Activity of water  =   0.998
                 Ionic strength (mol/kgw)  =   6.098e-02
                       Mass of water (kg)  =   1.000e+00
                 Total alkalinity (eq/kg)  =  -5.329e-10
                         Temperature (°C)  =  -0.10
                  Electrical balance (eq)  =   5.288e-10
 Percent error, 100*(Cat-|An|)/(Cat+|An|)  =   0.00
                               Iterations  =   3
                         Gamma iterations  =   2
                      Osmotic coefficient  =   0.92716
                                  Total H  = 1.110186e+02
                                  Total O  = 5.551906e+01

----------------------------Distribution of species----------------------------

                                                    Unscaled  Unscaled
                                Unscaled       Log       Log       Log    mole V
   Species          Molality    Activity  Molality  Activity     Gamma    cm³/mol

   H+              1.271e-07   1.000e-07    -6.896    -7.000    -0.104      0.00
   OH-             1.266e-07   9.983e-08    -6.898    -7.001    -0.103     (0)  
   H2O             5.551e+01   9.983e-01     1.744    -0.001     0.000     18.02
Cl            4.878e-02
   Cl-             4.878e-02   3.987e-02    -1.312    -1.399    -0.088     (0)  
Mg            4.880e-03
   Mg+2            4.880e-03   2.098e-03    -2.312    -2.678    -0.367     (0)  
Na            4.390e-02
   Na+             4.390e-02   3.547e-02    -1.358    -1.450    -0.093     (0)  
S(6)          2.440e-03
   SO4-2           2.440e-03   9.279e-04    -2.613    -3.032    -0.420     (0)  

------------------------------Saturation indices-------------------------------

  Phase               SI** log IAP   log K(273 K,   1 atm)

  Bischofite      -10.26     -5.48    4.78  MgCl2:6H2O
  Bloedite         -8.81    -11.65   -2.84  Na2SO4:MgSO4:4H2O
  Epsomite         -3.63     -5.72   -2.09  MgSO4:7H2O
  Halite           -4.35     -2.85    1.50  NaCl
  Hexahydrite      -4.13     -5.71   -1.59  MgSO4:6H2O
  Hydrohalite      -4.11     -2.85    1.26  NaCl:2H2O
  Ice(s)           -0.00     -0.00   -0.00  H2O
  Kieserite        -6.35     -5.71    0.64  MgSO4:H2O
  Meridianiite     -3.54     -5.72   -2.18  MgSO4:11H2O
  MgCl2:12H2O      -8.18     -5.49    2.70  MgCl2:12H2O
  MgCl2:8H2O       -9.40     -5.48    3.92  MgCl2:8H2O
  Mirabilite       -3.44     -5.94   -2.50  Na2SO4:10H2O
  Na2SO4:7H2O      -4.35     -5.94   -1.59  Na2SO4:7H2O
  Pentahydrite     -4.64     -5.71   -1.08  MgSO4:5H2O
  Starkeyite       -5.21     -5.71   -0.50  MgSO4:4H2O
  Thenardite       -5.61     -5.93   -0.32  Na2SO4

**For a gas, SI = log10(fugacity). Fugacity = pressure * phi / 1 atm.
  For ideal gases, phi = 1.

Reaction step 3.

WARNING: Element Ca is contained in Anhydrite (which has 0.0 mass),	
but is not in solution or other phases.
WARNING: Element Ca is contained in Antarcticite (which has 0.0 mass),	
but is not in solution or other phases.
WARNING: Element K is contained in Arcanite (which has 0.0 mass),	
but is not in solution or other phases.
WARNING: Element Ca is contained in Bassanite (which has 0.0 mass),	
but is not in solution or other phases.
WARNING: Element K is contained in Carnallite (which has 0.0 mass),	
but is not in solution or other phases.
WARNING: Element K is contained in Glaserite (which has 0.0 mass),	
but is not in solution or other phases.
WARNING: Element Ca is contained in Glauberite (which has 0.0 mass),	
but is not in solution or other phases.
WARNING: Element Ca is contained in Gypsum (which has 0.0 mass),	
but is not in solution or other phases.
WARNING: Element K is contained in Kainite (which has 0.0 mass),	
but is not in solution or other phases.
WARNING: Element Ca is contained in Labile_Salt (which has 0.0 mass),	
but is not in solution or other phases.
WARNING: Element K is contained in Langbeinite (which has 0.0 mass),	
but is not in solution or other phases.
WARNING: Element K is contained in Leonite (which has 0.0 mass),	
but is not in solution or other phases.
WARNING: Element K is contained in Picromerite (which has 0.0 mass),	
but is not in solution or other phases.
WARNING: Element Ca is contained in Polyhalite (which has 0.0 mass),	
but is not in solution or other phases.
WARNING: Element K is contained in Polyhalite (which has 0.0 mass),	
but is not in solution or other phases.
WARNING: Element K is contained in Sylvite (which has 0.0 mass),	
but is not in solution or other phases.
WARNING: Element Ca is contained in Syngenite (which has 0.0 mass),	
but is not in solution or other phases.
WARNING: Element K is contained in Syngenite (which has 0.0 mass),	
but is not in solution or other phases.
WARNING: Element Ca is contained in Tachyhydrite (which has 0.0 mass),	
but is not in solution or other phases.
WARNING: Maximum iterations exceeded, 200

WARNING: Numerical method failed with this set of convergence parameters.

WARNING: Trying smaller step size, pe step size 10, 5 ... 

WARNING: Element Ca is contained in Anhydrite (which has 0.0 mass),	
but is not in solution or other phases.
WARNING: Element Ca is contained in Antarcticite (which has 0.0 mass),	
but is not in solution or other phases.
WARNING: Element K is contained in Arcanite (which has 0.0 mass),	
but is not in solution or other phases.
WARNING: Element Ca is contained in Bassanite (which has 0.0 mass),	
but is not in solution or other phases.
WARNING: Element K is contained in Carnallite (which has 0.0 mass),	
but is not in solution or other phases.
WARNING: Element K is contained in Glaserite (which has 0.0 mass),	
but is not in solution or other phases.
WARNING: Element Ca is contained in Glauberite (which has 0.0 mass),	
but is not in solution or other phases.
WARNING: Element Ca is contained in Gypsum (which has 0.0 mass),	
but is not in solution or other phases.
WARNING: Element K is contained in Kainite (which has 0.0 mass),	
but is not in solution or other phases.
WARNING: Element Ca is contained in Labile_Salt (which has 0.0 mass),	
but is not in solution or other phases.
WARNING: Element K is contained in Langbeinite (which has 0.0 mass),	
but is not in solution or other phases.
WARNING: Element K is contained in Leonite (which has 0.0 mass),	
but is not in solution or other phases.
WARNING: Element K is contained in Picromerite (which has 0.0 mass),	
but is not in solution or other phases.
WARNING: Element Ca is contained in Polyhalite (which has 0.0 mass),	
but is not in solution or other phases.
WARNING: Element K is contained in Polyhalite (which has 0.0 mass),	
but is not in solution or other phases.
WARNING: Element K is contained in Sylvite (which has 0.0 mass),	
but is not in solution or other phases.
WARNING: Element Ca is contained in Syngenite (which has 0.0 mass),	
but is not in solution or other phases.
WARNING: Element K is contained in Syngenite (which has 0.0 mass),	
but is not in solution or other phases.
WARNING: Element Ca is contained in Tachyhydrite (which has 0.0 mass),	
but is not in solution or other phases.
WARNING: Maximum iterations exceeded, 400

WARNING: Numerical method failed with this set of convergence parameters.

WARNING: Trying reduced tolerance 1e-16 ...

WARNING: Element Ca is contained in Anhydrite (which has 0.0 mass),	
but is not in solution or other phases.
WARNING: Element Ca is contained in Antarcticite (which has 0.0 mass),	
but is not in solution or other phases.
WARNING: Element K is contained in Arcanite (which has 0.0 mass),	
but is not in solution or other phases.
WARNING: Element Ca is contained in Bassanite (which has 0.0 mass),	
but is not in solution or other phases.
WARNING: Element K is contained in Carnallite (which has 0.0 mass),	
but is not in solution or other phases.
WARNING: Element K is contained in Glaserite (which has 0.0 mass),	
but is not in solution or other phases.
WARNING: Element Ca is contained in Glauberite (which has 0.0 mass),	
but is not in solution or other phases.
WARNING: Element Ca is contained in Gypsum (which has 0.0 mass),	
but is not in solution or other phases.
WARNING: Element K is contained in Kainite (which has 0.0 mass),	
but is not in solution or other phases.
WARNING: Element Ca is contained in Labile_Salt (which has 0.0 mass),	
but is not in solution or other phases.
WARNING: Element K is contained in Langbeinite (which has 0.0 mass),	
but is not in solution or other phases.
WARNING: Element K is contained in Leonite (which has 0.0 mass),	
but is not in solution or other phases.
WARNING: Element K is contained in Picromerite (which has 0.0 mass),	
but is not in solution or other phases.
WARNING: Element Ca is contained in Polyhalite (which has 0.0 mass),	
but is not in solution or other phases.
WARNING: Element K is contained in Polyhalite (which has 0.0 mass),	
but is not in solution or other phases.
WARNING: Element K is contained in Sylvite (which has 0.0 mass),	
but is not in solution or other phases.
WARNING: Element Ca is contained in Syngenite (which has 0.0 mass),	
but is not in solution or other phases.
WARNING: Element K is contained in Syngenite (which has 0.0 mass),	
but is not in solution or other phases.
Using solution 1.	
Using pure phase assemblage 1.	
Using temperature 1.	

-------------------------------Phase assemblage--------------------------------

                                                      Moles in assemblage
Phase               SI  log IAP  log K(T, P)   Initial       Final       Delta

Anhydrite            Element not present.    0.000e+00           0   0.000e+00
Antarcticite         Element not present.    0.000e+00           0   0.000e+00
Arcanite             Element not present.    0.000e+00           0   0.000e+00
Bassanite            Element not present.    0.000e+00           0   0.000e+00
Bischofite      -10.09    -5.31      4.78    0.000e+00           0   0.000e+00
Bloedite         -8.56   -11.40     -2.84    0.000e+00           0   0.000e+00
Carnallite           Element not present.    0.000e+00           0   0.000e+00
Epsomite         -3.54    -5.63     -2.09    0.000e+00           0   0.000e+00
Glaserite            Element not present.    0.000e+00           0   0.000e+00
Glauberite           Element not present.    0.000e+00           0   0.000e+00
Gypsum               Element not present.    0.000e+00           0   0.000e+00
Halite           -4.23    -2.73      1.50    0.000e+00           0   0.000e+00
Hexahydrite      -4.04    -5.63     -1.59    0.000e+00           0   0.000e+00
Hydrohalite      -3.98    -2.73      1.25    0.000e+00           0   0.000e+00
Ice(s)            0.00    -0.00     -0.00    0.000e+00   7.828e+00   7.828e+00
Kainite              Element not present.    0.000e+00           0   0.000e+00
Kieserite        -6.27    -5.62      0.64    0.000e+00           0   0.000e+00
Labile_Salt          Element not present.    0.000e+00           0   0.000e+00
Langbeinite          Element not present.    0.000e+00           0   0.000e+00
Leonite              Element not present.    0.000e+00           0   0.000e+00
Meridianiite     -3.45    -5.63     -2.19    0.000e+00           0   0.000e+00
MgCl2:12H2O      -8.01    -5.32      2.69    0.000e+00           0   0.000e+00
MgCl2:8H2O       -9.23    -5.31      3.91    0.000e+00           0   0.000e+00
Mirabilite       -3.28    -5.78     -2.50    0.000e+00           0   0.000e+00
Na2SO4:7H2O      -4.18    -5.78     -1.59    0.000e+00           0   0.000e+00
Pentahydrite     -4.55    -5.63     -1.08    0.000e+00           0   0.000e+00
Picromerite          Element not present.    0.000e+00           0   0.000e+00
Polyhalite           Element not present.    0.000e+00           0   0.000e+00
Starkeyite       -5.13    -5.63     -0.50    0.000e+00           0   0.000e+00
Sylvite              Element not present.    0.000e+00           0   0.000e+00
Syngenite            Element not present.    0.000e+00           0   0.000e+00
Tachyhydrite         Element not present.    0.000e+00           0   0.000e+00
Thenardite       -5.45    -5.77     -0.32    0.000e+00           0   0.000e+00

-----------------------------Solution composition------------------------------

	Elements           Molality       Moles

	Cl                5.679e-02   4.878e-02
	Mg                5.681e-03   4.880e-03
	Na                5.111e-02   4.390e-02
	S                 2.841e-03   2.440e-03

----------------------------Description of solution----------------------------

                                       pH  =   7.000      Charge balance
                                       pe  =   4.000      Adjusted to redox equilibrium
                        Activity of water  =   0.998
                 Ionic strength (mol/kgw)  =   7.099e-02
                       Mass of water (kg)  =   8.590e-01
                 Total alkalinity (eq/kg)  =  -6.203e-10
                         Temperature (°C)  =  -0.20
                  Electrical balance (eq)  =   5.329e-10
 Percent error, 100*(Cat-|An|)/(Cat+|An|)  =   0.00
                               Iterations  =   5 (1409 overall)
                         Gamma iterations  =   1
                      Osmotic coefficient  =   0.92400
                                  Total H  = 9.536298e+01
                                  Total O  = 4.769125e+01

----------------------------Distribution of species----------------------------

                                                    Unscaled  Unscaled
                                Unscaled       Log       Log       Log    mole V
   Species          Molality    Activity  Molality  Activity     Gamma    cm³/mol

   H+              1.292e-07   1.000e-07    -6.889    -7.000    -0.111      0.00
   OH-             1.286e-07   9.979e-08    -6.891    -7.001    -0.110     (0)  
   H2O             5.551e+01   9.981e-01     1.744    -0.001     0.000     18.02
Cl            5.679e-02
   Cl-             5.679e-02   4.592e-02    -1.246    -1.338    -0.092     (0)  
Mg            5.681e-03
   Mg+2            5.681e-03   2.337e-03    -2.246    -2.631    -0.386     (0)  
Na            5.111e-02
   Na+             5.111e-02   4.077e-02    -1.292    -1.390    -0.098     (0)  
S(6)          2.841e-03
   SO4-2           2.841e-03   1.018e-03    -2.547    -2.992    -0.446     (0)  

------------------------------Saturation indices-------------------------------

  Phase               SI** log IAP   log K(272 K,   1 atm)

  Bischofite      -10.09     -5.31    4.78  MgCl2:6H2O
  Bloedite         -8.56    -11.40   -2.84  Na2SO4:MgSO4:4H2O
  Epsomite         -3.54     -5.63   -2.09  MgSO4:7H2O
  Halite           -4.23     -2.73    1.50  NaCl
  Hexahydrite      -4.04     -5.63   -1.59  MgSO4:6H2O
  Hydrohalite      -3.98     -2.73    1.25  NaCl:2H2O
  Ice(s)            0.00     -0.00   -0.00  H2O
  Kieserite        -6.27     -5.62    0.64  MgSO4:H2O
  Meridianiite     -3.45     -5.63   -2.19  MgSO4:11H2O
  MgCl2:12H2O      -8.01     -5.32    2.69  MgCl2:12H2O
  MgCl2:8H2O       -9.23     -5.31    3.91  MgCl2:8H2O
  Mirabilite       -3.28     -5.78   -2.50  Na2SO4:10H2O
  Na2SO4:7H2O      -4.18     -5.78   -1.59  Na2SO4:7H2O
  Pentahydrite     -4.55     -5.63   -1.08  MgSO4:5H2O
  Starkeyite       -5.13     -5.63   -0.50  MgSO4:4H2O
  Thenardite       -5.45     -5.77   -0.32  Na2SO4

**For a gas, SI = log10(fugacity). Fugacity = pressure * phi / 1 atm.
  For ideal gases, phi = 1.

Reaction step 4.

Using solution 1.	
Using pure phase assemblage 1.	
Using temperature 1.	

-------------------------------Phase assemblage--------------------------------

                                                      Moles in assemblage
Phase               SI  log IAP  log K(T, P)   Initial       Final       Delta

Anhydrite            Element not present.    0.000e+00           0   0.000e+00
Antarcticite         Element not present.    0.000e+00           0   0.000e+00
Arcanite             Element not present.    0.000e+00           0   0.000e+00
Bassanite            Element not present.    0.000e+00           0   0.000e+00
Bischofite       -9.63    -4.86      4.78    0.000e+00           0   0.000e+00
Bloedite         -7.90   -10.74     -2.84    0.000e+00           0   0.000e+00
Carnallite           Element not present.    0.000e+00           0   0.000e+00
Epsomite         -3.31    -5.40     -2.09    0.000e+00           0   0.000e+00
Glaserite            Element not present.    0.000e+00           0   0.000e+00
Glauberite           Element not present.    0.000e+00           0   0.000e+00
Gypsum               Element not present.    0.000e+00           0   0.000e+00
Halite           -3.90    -2.40      1.50    0.000e+00           0   0.000e+00
Hexahydrite      -3.82    -5.40     -1.59    0.000e+00           0   0.000e+00
Hydrohalite      -3.65    -2.40      1.25    0.000e+00           0   0.000e+00
Ice(s)            0.00    -0.00     -0.00    0.000e+00   2.401e+01   2.401e+01
Kainite              Element not present.    0.000e+00           0   0.000e+00
Kieserite        -6.04    -5.40      0.65    0.000e+00           0   0.000e+00
Labile_Salt          Element not present.    0.000e+00           0   0.000e+00
Langbeinite          Element not present.    0.000e+00           0   0.000e+00
Leonite              Element not present.    0.000e+00           0   0.000e+00
Meridianiite     -3.22    -5.41     -2.19    0.000e+00           0   0.000e+00
MgCl2:12H2O      -7.55    -4.86      2.69    0.000e+00           0   0.000e+00
MgCl2:8H2O       -8.77    -4.86      3.91    0.000e+00           0   0.000e+00
Mirabilite       -2.84    -5.35     -2.51    0.000e+00           0   0.000e+00
Na2SO4:7H2O      -3.75    -5.35     -1.60    0.000e+00           0   0.000e+00
Pentahydrite     -4.32    -5.40     -1.08    0.000e+00           0   0.000e+00
Picromerite          Element not present.    0.000e+00           0   0.000e+00
Polyhalite           Element not present.    0.000e+00           0   0.000e+00
Starkeyite       -4.90    -5.40     -0.50    0.000e+00           0   0.000e+00
Sylvite              Element not present.    0.000e+00           0   0.000e+00
Syngenite            Element not present.    0.000e+00           0   0.000e+00
Tachyhydrite         Element not present.    0.000e+00           0   0.000e+00
Thenardite       -5.02    -5.34     -0.32    0.000e+00           0   0.000e+00

-----------------------------Solution composition------------------------------

	Elements           Molality       Moles

	Cl                8.597e-02   4.878e-02
	Mg                8.601e-03   4.880e-03
	Na                7.737e-02   4.390e-02
	S                 4.300e-03   2.440e-03

----------------------------Description of solution----------------------------

                                       pH  =   7.000      Charge balance
                                       pe  =   4.000      Adjusted to redox equilibrium
                        Activity of water  =   0.997
                 Ionic strength (mol/kgw)  =   1.075e-01
                       Mass of water (kg)  =   5.674e-01
                 Total alkalinity (eq/kg)  =  -9.392e-10
                         Temperature (°C)  =  -0.30
                  Electrical balance (eq)  =   5.329e-10
 Percent error, 100*(Cat-|An|)/(Cat+|An|)  =   0.00
                               Iterations  =   7 (1411 overall)
                         Gamma iterations  =   1
                      Osmotic coefficient  =   0.91555
                                  Total H  = 6.298949e+01
                                  Total O  = 3.150451e+01

----------------------------Distribution of species----------------------------

                                                    Unscaled  Unscaled
                                Unscaled       Log       Log       Log    mole V
   Species          Molality    Activity  Molality  Activity     Gamma    cm³/mol

   H+              1.357e-07   1.000e-07    -6.867    -7.000    -0.132      0.00
   OH-             1.348e-07   9.967e-08    -6.870    -7.001    -0.131     (0)  
   H2O             5.551e+01   9.971e-01     1.744    -0.001     0.000     18.02
Cl            8.597e-02
   Cl-             8.597e-02   6.737e-02    -1.066    -1.172    -0.106     (0)  
Mg            8.601e-03
   Mg+2            8.601e-03   3.122e-03    -2.065    -2.506    -0.440     (0)  
Na            7.737e-02
   Na+             7.737e-02   5.951e-02    -1.111    -1.225    -0.114     (0)  
S(6)          4.300e-03
   SO4-2           4.300e-03   1.293e-03    -2.366    -2.889    -0.522     (0)  

------------------------------Saturation indices-------------------------------

  Phase               SI** log IAP   log K(272 K,   1 atm)

  Bischofite       -9.63     -4.86    4.78  MgCl2:6H2O
  Bloedite         -7.90    -10.74   -2.84  Na2SO4:MgSO4:4H2O
  Epsomite         -3.31     -5.40   -2.09  MgSO4:7H2O
  Halite           -3.90     -2.40    1.50  NaCl
  Hexahydrite      -3.82     -5.40   -1.59  MgSO4:6H2O
  Hydrohalite      -3.65     -2.40    1.25  NaCl:2H2O
  Ice(s)            0.00     -0.00   -0.00  H2O
  Kieserite        -6.04     -5.40    0.65  MgSO4:H2O
  Meridianiite     -3.22     -5.41   -2.19  MgSO4:11H2O
  MgCl2:12H2O      -7.55     -4.86    2.69  MgCl2:12H2O
  MgCl2:8H2O       -8.77     -4.86    3.91  MgCl2:8H2O
  Mirabilite       -2.84     -5.35   -2.51  Na2SO4:10H2O
  Na2SO4:7H2O      -3.75     -5.35   -1.60  Na2SO4:7H2O
  Pentahydrite     -4.32     -5.40   -1.08  MgSO4:5H2O
  Starkeyite       -4.90     -5.40   -0.50  MgSO4:4H2O
  Thenardite       -5.02     -5.34   -0.32  Na2SO4

**For a gas, SI = log10(fugacity). Fugacity = pressure * phi / 1 atm.
  For ideal gases, phi = 1.

Reaction step 5.

Using solution 1.	
Using pure phase assemblage 1.	
Using temperature 1.	

-------------------------------Phase assemblage--------------------------------

                                                      Moles in assemblage
Phase               SI  log IAP  log K(T, P)   Initial       Final       Delta

Anhydrite            Element not present.    0.000e+00           0   0.000e+00
Antarcticite         Element not present.    0.000e+00           0   0.000e+00
Arcanite             Element not present.    0.000e+00           0   0.000e+00
Bassanite            Element not present.    0.000e+00           0   0.000e+00
Bischofite       -9.31    -4.53      4.78    0.000e+00           0   0.000e+00
Bloedite         -7.44   -10.28     -2.84    0.000e+00           0   0.000e+00
Carnallite           Element not present.    0.000e+00           0   0.000e+00
Epsomite         -3.16    -5.25     -2.09    0.000e+00           0   0.000e+00
Glaserite            Element not present.    0.000e+00           0   0.000e+00
Glauberite           Element not present.    0.000e+00           0   0.000e+00
Gypsum               Element not present.    0.000e+00           0   0.000e+00
Halite           -3.66    -2.16      1.50    0.000e+00           0   0.000e+00
Hexahydrite      -3.66    -5.25     -1.59    0.000e+00           0   0.000e+00
Hydrohalite      -3.42    -2.17      1.25    0.000e+00           0   0.000e+00
Ice(s)            0.00    -0.00     -0.00    0.000e+00   3.204e+01   3.204e+01
Kainite              Element not present.    0.000e+00           0   0.000e+00
Kieserite        -5.89    -5.24      0.65    0.000e+00           0   0.000e+00
Labile_Salt          Element not present.    0.000e+00           0   0.000e+00
Langbeinite          Element not present.    0.000e+00           0   0.000e+00
Leonite              Element not present.    0.000e+00           0   0.000e+00
Meridianiite     -3.06    -5.26     -2.19    0.000e+00           0   0.000e+00
MgCl2:12H2O      -7.23    -4.54      2.69    0.000e+00           0   0.000e+00
MgCl2:8H2O       -8.45    -4.54      3.91    0.000e+00           0   0.000e+00
Mirabilite       -2.54    -5.06     -2.51    0.000e+00           0   0.000e+00
Na2SO4:7H2O      -3.45    -5.05     -1.60    0.000e+00           0   0.000e+00
Pentahydrite     -4.17    -5.25     -1.08    0.000e+00           0   0.000e+00
Picromerite          Element not present.    0.000e+00           0   0.000e+00
Polyhalite           Element not present.    0.000e+00           0   0.000e+00
Starkeyite       -4.75    -5.24     -0.50    0.000e+00           0   0.000e+00
Sylvite              Element not present.    0.000e+00           0   0.000e+00
Syngenite            Element not present.    0.000e+00           0   0.000e+00
Tachyhydrite         Element not present.    0.000e+00           0   0.000e+00
Thenardite       -4.72    -5.04     -0.32    0.000e+00           0   0.000e+00

-----------------------------Solution composition------------------------------

	Elements           Molality       Moles

	Cl                1.154e-01   4.878e-02
	Mg                1.154e-02   4.880e-03
	Na                1.038e-01   4.390e-02
	S                 5.770e-03   2.440e-03

----------------------------Description of solution----------------------------

                                       pH  =   7.000      Charge balance
                                       pe  =   4.000      Adjusted to redox equilibrium
                        Activity of water  =   0.996
                 Ionic strength (mol/kgw)  =   1.442e-01
                       Mass of water (kg)  =   4.229e-01
                 Total alkalinity (eq/kg)  =  -1.260e-09
                         Temperature (°C)  =  -0.40
                  Electrical balance (eq)  =   5.329e-10
 Percent error, 100*(Cat-|An|)/(Cat+|An|)  =   0.00
                               Iterations  =   8 (1412 overall)
                         Gamma iterations  =   1
                      Osmotic coefficient  =   0.90991
                                  Total H  = 4.694788e+01
                                  Total O  = 2.348370e+01

----------------------------Distribution of species----------------------------

                                                    Unscaled  Unscaled
                                Unscaled       Log       Log       Log    mole V
   Species          Molality    Activity  Molality  Activity     Gamma    cm³/mol

   H+              1.412e-07   1.001e-07    -6.850    -7.000    -0.150      0.00
   OH-             1.400e-07   9.955e-08    -6.854    -7.002    -0.148     (0)  
   H2O             5.551e+01   9.961e-01     1.744    -0.002     0.000     18.02
Cl            1.154e-01
   Cl-             1.154e-01   8.833e-02    -0.938    -1.054    -0.116     (0)  
Mg            1.154e-02
   Mg+2            1.154e-02   3.829e-03    -1.938    -2.417    -0.479     (0)  
Na            1.038e-01
   Na+             1.038e-01   7.764e-02    -0.984    -1.110    -0.126     (0)  
S(6)          5.770e-03
   SO4-2           5.770e-03   1.513e-03    -2.239    -2.820    -0.581     (0)  

------------------------------Saturation indices-------------------------------

  Phase               SI** log IAP   log K(272 K,   1 atm)

  Bischofite       -9.31     -4.53    4.78  MgCl2:6H2O
  Bloedite         -7.44    -10.28   -2.84  Na2SO4:MgSO4:4H2O
  Epsomite         -3.16     -5.25   -2.09  MgSO4:7H2O
  Halite           -3.66     -2.16    1.50  NaCl
  Hexahydrite      -3.66     -5.25   -1.59  MgSO4:6H2O
  Hydrohalite      -3.42     -2.17    1.25  NaCl:2H2O
  Ice(s)            0.00     -0.00   -0.00  H2O
  Kieserite        -5.89     -5.24    0.65  MgSO4:H2O
  Meridianiite     -3.06     -5.26   -2.19  MgSO4:11H2O
  MgCl2:12H2O      -7.23     -4.54    2.69  MgCl2:12H2O
  MgCl2:8H2O       -8.45     -4.54    3.91  MgCl2:8H2O
  Mirabilite       -2.54     -5.06   -2.51  Na2SO4:10H2O
  Na2SO4:7H2O      -3.45     -5.05   -1.60  Na2SO4:7H2O
  Pentahydrite     -4.17     -5.25   -1.08  MgSO4:5H2O
  Starkeyite       -4.75     -5.24   -0.50  MgSO4:4H2O
  Thenardite       -4.72     -5.04   -0.32  Na2SO4

**For a gas, SI = log10(fugacity). Fugacity = pressure * phi / 1 atm.
  For ideal gases, phi = 1.

Reaction step 6.

Using solution 1.	
Using pure phase assemblage 1.	
Using temperature 1.	

-------------------------------Phase assemblage--------------------------------

                                                      Moles in assemblage
Phase               SI  log IAP  log K(T, P)   Initial       Final       Delta

Anhydrite            Element not present.    0.000e+00           0   0.000e+00
Antarcticite         Element not present.    0.000e+00           0   0.000e+00
Arcanite             Element not present.    0.000e+00           0   0.000e+00
Bassanite            Element not present.    0.000e+00           0   0.000e+00
Bischofite       -9.07    -4.29      4.78    0.000e+00           0   0.000e+00
Bloedite         -7.09    -9.94     -2.85    0.000e+00           0   0.000e+00
Carnallite           Element not present.    0.000e+00           0   0.000e+00
Epsomite         -3.04    -5.13     -2.09    0.000e+00           0   0.000e+00
Glaserite            Element not present.    0.000e+00           0   0.000e+00
Glauberite           Element not present.    0.000e+00           0   0.000e+00
Gypsum               Element not present.    0.000e+00           0   0.000e+00
Halite           -3.48    -1.98      1.50    0.000e+00           0   0.000e+00
Hexahydrite      -3.54    -5.13     -1.59    0.000e+00           0   0.000e+00
Hydrohalite      -3.24    -1.99      1.25    0.000e+00           0   0.000e+00
Ice(s)            0.00    -0.00     -0.00    0.000e+00   3.681e+01   3.681e+01
Kainite              Element not present.    0.000e+00           0   0.000e+00
Kieserite        -5.77    -5.12      0.65    0.000e+00           0   0.000e+00
Labile_Salt          Element not present.    0.000e+00           0   0.000e+00
Langbeinite          Element not present.    0.000e+00           0   0.000e+00
Leonite              Element not present.    0.000e+00           0   0.000e+00
Meridianiite     -2.94    -5.14     -2.20    0.000e+00           0   0.000e+00
MgCl2:12H2O      -6.98    -4.30      2.69    0.000e+00           0   0.000e+00
MgCl2:8H2O       -8.20    -4.29      3.91    0.000e+00           0   0.000e+00
Mirabilite       -2.31    -4.83     -2.52    0.000e+00           0   0.000e+00
Na2SO4:7H2O      -3.22    -4.83     -1.61    0.000e+00           0   0.000e+00
Pentahydrite     -4.05    -5.13     -1.08    0.000e+00           0   0.000e+00
Picromerite          Element not present.    0.000e+00           0   0.000e+00
Polyhalite           Element not present.    0.000e+00           0   0.000e+00
Starkeyite       -4.63    -5.13     -0.49    0.000e+00           0   0.000e+00
Sylvite              Element not present.    0.000e+00           0   0.000e+00
Syngenite            Element not present.    0.000e+00           0   0.000e+00
Tachyhydrite         Element not present.    0.000e+00           0   0.000e+00
Thenardite       -4.49    -4.81     -0.32    0.000e+00           0   0.000e+00

-----------------------------Solution composition------------------------------

	Elements           Molality       Moles

	Cl                1.448e-01   4.878e-02
	Mg                1.449e-02   4.880e-03
	Na                1.304e-01   4.390e-02
	S                 7.245e-03   2.440e-03

----------------------------Description of solution----------------------------

                                       pH  =   7.000      Charge balance
                                       pe  =   4.000      Adjusted to redox equilibrium
                        Activity of water  =   0.995
                 Ionic strength (mol/kgw)  =   1.811e-01
                       Mass of water (kg)  =   3.368e-01
                 Total alkalinity (eq/kg)  =  -1.582e-09
                         Temperature (°C)  =  -0.50
                  Electrical balance (eq)  =   5.329e-10
 Percent error, 100*(Cat-|An|)/(Cat+|An|)  =   0.00
                               Iterations  =   9 (1413 overall)
                         Gamma iterations  =   1
                      Osmotic coefficient  =   0.90586
                                  Total H  = 3.738883e+01
                                  Total O  = 1.870418e+01

----------------------------Distribution of species----------------------------

                                                    Unscaled  Unscaled
                                Unscaled       Log       Log       Log    mole V
   Species          Molality    Activity  Molality  Activity     Gamma    cm³/mol

   H+              1.461e-07   1.001e-07    -6.835    -7.000    -0.164      0.00
   OH-             1.445e-07   9.944e-08    -6.840    -7.002    -0.162     (0)  
   H2O             5.551e+01   9.952e-01     1.744    -0.002     0.000     18.02
Cl            1.448e-01
   Cl-             1.448e-01   1.089e-01    -0.839    -0.963    -0.124     (0)  
Mg            1.449e-02
   Mg+2            1.449e-02   4.487e-03    -1.839    -2.348    -0.509     (0)  
Na            1.304e-01
   Na+             1.304e-01   9.529e-02    -0.885    -1.021    -0.136     (0)  
S(6)          7.245e-03
   SO4-2           7.245e-03   1.696e-03    -2.140    -2.771    -0.631     (0)  

------------------------------Saturation indices-------------------------------

  Phase               SI** log IAP   log K(272 K,   1 atm)

  Bischofite       -9.07     -4.29    4.78  MgCl2:6H2O
  Bloedite         -7.09     -9.94   -2.85  Na2SO4:MgSO4:4H2O
  Epsomite         -3.04     -5.13   -2.09  MgSO4:7H2O
  Halite           -3.48     -1.98    1.50  NaCl
  Hexahydrite      -3.54     -5.13   -1.59  MgSO4:6H2O
  Hydrohalite      -3.24     -1.99    1.25  NaCl:2H2O
  Ice(s)            0.00     -0.00   -0.00  H2O
  Kieserite        -5.77     -5.12    0.65  MgSO4:H2O
  Meridianiite     -2.94     -5.14   -2.20  MgSO4:11H2O
  MgCl2:12H2O      -6.98     -4.30    2.69  MgCl2:12H2O
  MgCl2:8H2O       -8.20     -4.29    3.91  MgCl2:8H2O
  Mirabilite       -2.31     -4.83   -2.52  Na2SO4:10H2O
  Na2SO4:7H2O      -3.22     -4.83   -1.61  Na2SO4:7H2O
  Pentahydrite     -4.05     -5.13   -1.08  MgSO4:5H2O
  Starkeyite       -4.63     -5.13   -0.49  MgSO4:4H2O
  Thenardite       -4.49     -4.81   -0.32  Na2SO4

**For a gas, SI = log10(fugacity). Fugacity = pressure * phi / 1 atm.
  For ideal gases, phi = 1.

Reaction step 7.

Using solution 1.	
Using pure phase assemblage 1.	
Using temperature 1.	

-------------------------------Phase assemblage--------------------------------

                                                      Moles in assemblage
Phase               SI  log IAP  log K(T, P)   Initial       Final       Delta

Anhydrite            Element not present.    0.000e+00           0   0.000e+00
Antarcticite         Element not present.    0.000e+00           0   0.000e+00
Arcanite             Element not present.    0.000e+00           0   0.000e+00
Bassanite            Element not present.    0.000e+00           0   0.000e+00
Bischofite       -8.86    -4.08      4.78    0.000e+00           0   0.000e+00
Bloedite         -6.81    -9.66     -2.85    0.000e+00           0   0.000e+00
Carnallite           Element not present.    0.000e+00           0   0.000e+00
Epsomite         -2.95    -5.04     -2.09    0.000e+00           0   0.000e+00
Glaserite            Element not present.    0.000e+00           0   0.000e+00
Glauberite           Element not present.    0.000e+00           0   0.000e+00
Gypsum               Element not present.    0.000e+00           0   0.000e+00
Halite           -3.33    -1.84      1.50    0.000e+00           0   0.000e+00
Hexahydrite      -3.45    -5.04     -1.59    0.000e+00           0   0.000e+00
Hydrohalite      -3.09    -1.84      1.25    0.000e+00           0   0.000e+00
Ice(s)            0.00    -0.00     -0.00    0.000e+00   3.998e+01   3.998e+01
Kainite              Element not present.    0.000e+00           0   0.000e+00
Kieserite        -5.68    -5.03      0.66    0.000e+00           0   0.000e+00
Labile_Salt          Element not present.    0.000e+00           0   0.000e+00
Langbeinite          Element not present.    0.000e+00           0   0.000e+00
Leonite              Element not present.    0.000e+00           0   0.000e+00
Meridianiite     -2.85    -5.05     -2.20    0.000e+00           0   0.000e+00
MgCl2:12H2O      -6.78    -4.10      2.68    0.000e+00           0   0.000e+00
MgCl2:8H2O       -8.00    -4.09      3.91    0.000e+00           0   0.000e+00
Mirabilite       -2.13    -4.66     -2.52    0.000e+00           0   0.000e+00
Na2SO4:7H2O      -3.04    -4.65     -1.61    0.000e+00           0   0.000e+00
Pentahydrite     -3.96    -5.04     -1.07    0.000e+00           0   0.000e+00
Picromerite          Element not present.    0.000e+00           0   0.000e+00
Polyhalite           Element not present.    0.000e+00           0   0.000e+00
Starkeyite       -4.54    -5.03     -0.49    0.000e+00           0   0.000e+00
Sylvite              Element not present.    0.000e+00           0   0.000e+00
Syngenite            Element not present.    0.000e+00           0   0.000e+00
Tachyhydrite         Element not present.    0.000e+00           0   0.000e+00
Thenardite       -4.31    -4.63     -0.32    0.000e+00           0   0.000e+00

-----------------------------Solution composition------------------------------

	Elements           Molality       Moles

	Cl                1.744e-01   4.878e-02
	Mg                1.745e-02   4.880e-03
	Na                1.570e-01   4.390e-02
	S                 8.724e-03   2.440e-03

----------------------------Description of solution----------------------------

                                       pH  =   7.000      Charge balance
                                       pe  =   4.000      Adjusted to redox equilibrium
                        Activity of water  =   0.994
                 Ionic strength (mol/kgw)  =   2.180e-01
                       Mass of water (kg)  =   2.797e-01
                 Total alkalinity (eq/kg)  =  -1.905e-09
                         Temperature (°C)  =  -0.60
                  Electrical balance (eq)  =   5.329e-10
 Percent error, 100*(Cat-|An|)/(Cat+|An|)  =   0.00
                               Iterations  =  10 (1414 overall)
                         Gamma iterations  =   1
                      Osmotic coefficient  =   0.90284
                                  Total H  = 3.105136e+01
                                  Total O  = 1.553544e+01

----------------------------Distribution of species----------------------------

                                                    Unscaled  Unscaled
                                Unscaled       Log       Log       Log    mole V
   Species          Molality    Activity  Molality  Activity     Gamma    cm³/mol

   H+              1.505e-07   1.001e-07    -6.822    -7.000    -0.177      0.00
   OH-             1.486e-07   9.932e-08    -6.828    -7.003    -0.175     (0)  
   H2O             5.551e+01   9.942e-01     1.744    -0.003     0.000     18.02
Cl            1.744e-01
   Cl-             1.744e-01   1.292e-01    -0.758    -0.889    -0.130     (0)  
Mg            1.745e-02
   Mg+2            1.745e-02   5.113e-03    -1.758    -2.291    -0.533     (0)  
Na            1.570e-01
   Na+             1.570e-01   1.125e-01    -0.804    -0.949    -0.144     (0)  
S(6)          8.724e-03
   SO4-2           8.724e-03   1.852e-03    -2.059    -2.732    -0.673     (0)  

------------------------------Saturation indices-------------------------------

  Phase               SI** log IAP   log K(272 K,   1 atm)

  Bischofite       -8.86     -4.08    4.78  MgCl2:6H2O
  Bloedite         -6.81     -9.66   -2.85  Na2SO4:MgSO4:4H2O
  Epsomite         -2.95     -5.04   -2.09  MgSO4:7H2O
  Halite           -3.33     -1.84    1.50  NaCl
  Hexahydrite      -3.45     -5.04   -1.59  MgSO4:6H2O
  Hydrohalite      -3.09     -1.84    1.25  NaCl:2H2O
  Ice(s)            0.00     -0.00   -0.00  H2O
  Kieserite        -5.68     -5.03    0.66  MgSO4:H2O
  Meridianiite     -2.85     -5.05   -2.20  MgSO4:11H2O
  MgCl2:12H2O      -6.78     -4.10    2.68  MgCl2:12H2O
  MgCl2:8H2O       -8.00     -4.09    3.91  MgCl2:8H2O
  Mirabilite       -2.13     -4.66   -2.52  Na2SO4:10H2O
  Na2SO4:7H2O      -3.04     -4.65   -1.61  Na2SO4:7H2O
  Pentahydrite     -3.96     -5.04   -1.07  MgSO4:5H2O
  Starkeyite       -4.54     -5.03   -0.49  MgSO4:4H2O
  Thenardite       -4.31     -4.63   -0.32  Na2SO4

**For a gas, SI = log10(fugacity). Fugacity = pressure * phi / 1 atm.
  For ideal gases, phi = 1.

Reaction step 8.

Using solution 1.	
Using pure phase assemblage 1.	
Using temperature 1.	

-------------------------------Phase assemblage--------------------------------

                                                      Moles in assemblage
Phase               SI  log IAP  log K(T, P)   Initial       Final       Delta

Anhydrite            Element not present.    0.000e+00           0   0.000e+00
Antarcticite         Element not present.    0.000e+00           0   0.000e+00
Arcanite             Element not present.    0.000e+00           0   0.000e+00
Bassanite            Element not present.    0.000e+00           0   0.000e+00
Bischofite       -8.69    -3.91      4.78    0.000e+00           0   0.000e+00
Bloedite         -6.58    -9.43     -2.85    0.000e+00           0   0.000e+00
Carnallite           Element not present.    0.000e+00           0   0.000e+00
Epsomite         -2.87    -4.97     -2.09    0.000e+00           0   0.000e+00
Glaserite            Element not present.    0.000e+00           0   0.000e+00
Glauberite           Element not present.    0.000e+00           0   0.000e+00
Gypsum               Element not present.    0.000e+00           0   0.000e+00
Halite           -3.21    -1.71      1.50    0.000e+00           0   0.000e+00
Hexahydrite      -3.37    -4.96     -1.59    0.000e+00           0   0.000e+00
Hydrohalite      -2.97    -1.72      1.25    0.000e+00           0   0.000e+00
Ice(s)            0.00    -0.00     -0.00    0.000e+00   4.224e+01   4.224e+01
Kainite              Element not present.    0.000e+00           0   0.000e+00
Kieserite        -5.61    -4.95      0.66    0.000e+00           0   0.000e+00
Labile_Salt          Element not present.    0.000e+00           0   0.000e+00
Langbeinite          Element not present.    0.000e+00           0   0.000e+00
Leonite              Element not present.    0.000e+00           0   0.000e+00
Meridianiite     -2.77    -4.98     -2.21    0.000e+00           0   0.000e+00
MgCl2:12H2O      -6.61    -3.93      2.68    0.000e+00           0   0.000e+00
MgCl2:8H2O       -7.83    -3.92      3.91    0.000e+00           0   0.000e+00
Mirabilite       -1.98    -4.51     -2.53    0.000e+00           0   0.000e+00
Na2SO4:7H2O      -2.88    -4.50     -1.62    0.000e+00           0   0.000e+00
Pentahydrite     -3.88    -4.96     -1.07    0.000e+00           0   0.000e+00
Picromerite          Element not present.    0.000e+00           0   0.000e+00
Polyhalite           Element not present.    0.000e+00           0   0.000e+00
Starkeyite       -4.46    -4.96     -0.49    0.000e+00           0   0.000e+00
Sylvite              Element not present.    0.000e+00           0   0.000e+00
Syngenite            Element not present.    0.000e+00           0   0.000e+00
Tachyhydrite         Element not present.    0.000e+00           0   0.000e+00
Thenardite       -4.15    -4.48     -0.32    0.000e+00           0   0.000e+00

-----------------------------Solution composition------------------------------

	Elements           Molality       Moles

	Cl                2.040e-01   4.878e-02
	Mg                2.041e-02   4.880e-03
	Na                1.836e-01   4.390e-02
	S                 1.020e-02   2.440e-03

----------------------------Description of solution----------------------------

                                       pH  =   6.999      Charge balance
                                       pe  =   4.000      Adjusted to redox equilibrium
                        Activity of water  =   0.993
                 Ionic strength (mol/kgw)  =   2.550e-01
                       Mass of water (kg)  =   2.391e-01
                 Total alkalinity (eq/kg)  =  -2.229e-09
                         Temperature (°C)  =  -0.70
                  Electrical balance (eq)  =   5.328e-10
 Percent error, 100*(Cat-|An|)/(Cat+|An|)  =   0.00
                               Iterations  =  11 (1415 overall)
                         Gamma iterations  =   1
                      Osmotic coefficient  =   0.90053
                                  Total H  = 2.654551e+01
                                  Total O  = 1.328252e+01

----------------------------Distribution of species----------------------------

                                                    Unscaled  Unscaled
                                Unscaled       Log       Log       Log    mole V
   Species          Molality    Activity  Molality  Activity     Gamma    cm³/mol

   H+              1.545e-07   1.001e-07    -6.811    -6.999    -0.189      0.00
   OH-             1.523e-07   9.920e-08    -6.817    -7.003    -0.186     (0)  
   H2O             5.551e+01   9.932e-01     1.744    -0.003     0.000     18.02
Cl            2.040e-01
   Cl-             2.040e-01   1.493e-01    -0.690    -0.826    -0.136     (0)  
Mg            2.041e-02
   Mg+2            2.041e-02   5.717e-03    -1.690    -2.243    -0.553     (0)  
Na            1.836e-01
   Na+             1.836e-01   1.295e-01    -0.736    -0.888    -0.152     (0)  
S(6)          1.020e-02
   SO4-2           1.020e-02   1.987e-03    -1.991    -2.702    -0.711     (0)  

------------------------------Saturation indices-------------------------------

  Phase               SI** log IAP   log K(272 K,   1 atm)

  Bischofite       -8.69     -3.91    4.78  MgCl2:6H2O
  Bloedite         -6.58     -9.43   -2.85  Na2SO4:MgSO4:4H2O
  Epsomite         -2.87     -4.97   -2.09  MgSO4:7H2O
  Halite           -3.21     -1.71    1.50  NaCl
  Hexahydrite      -3.37     -4.96   -1.59  MgSO4:6H2O
  Hydrohalite      -2.97     -1.72    1.25  NaCl:2H2O
  Ice(s)            0.00     -0.00   -0.00  H2O
  Kieserite        -5.61     -4.95    0.66  MgSO4:H2O
  Meridianiite     -2.77     -4.98   -2.21  MgSO4:11H2O
  MgCl2:12H2O      -6.61     -3.93    2.68  MgCl2:12H2O
  MgCl2:8H2O       -7.83     -3.92    3.91  MgCl2:8H2O
  Mirabilite       -1.98     -4.51   -2.53  Na2SO4:10H2O
  Na2SO4:7H2O      -2.88     -4.50   -1.62  Na2SO4:7H2O
  Pentahydrite     -3.88     -4.96   -1.07  MgSO4:5H2O
  Starkeyite       -4.46     -4.96   -0.49  MgSO4:4H2O
  Thenardite       -4.15     -4.48   -0.32  Na2SO4

**For a gas, SI = log10(fugacity). Fugacity = pressure * phi / 1 atm.
  For ideal gases, phi = 1.

Reaction step 9.

Using solution 1.	
Using pure phase assemblage 1.	
Using temperature 1.	

-------------------------------Phase assemblage--------------------------------

                                                      Moles in assemblage
Phase               SI  log IAP  log K(T, P)   Initial       Final       Delta

Anhydrite            Element not present.    0.000e+00           0   0.000e+00
Antarcticite         Element not present.    0.000e+00           0   0.000e+00
Arcanite             Element not present.    0.000e+00           0   0.000e+00
Bassanite            Element not present.    0.000e+00           0   0.000e+00
Bischofite       -8.55    -3.76      4.78    0.000e+00           0   0.000e+00
Bloedite         -6.38    -9.24     -2.85    0.000e+00           0   0.000e+00
Carnallite           Element not present.    0.000e+00           0   0.000e+00
Epsomite         -2.81    -4.90     -2.10    0.000e+00           0   0.000e+00
Glaserite            Element not present.    0.000e+00           0   0.000e+00
Glauberite           Element not present.    0.000e+00           0   0.000e+00
Gypsum               Element not present.    0.000e+00           0   0.000e+00
Halite           -3.10    -1.61      1.50    0.000e+00           0   0.000e+00
Hexahydrite      -3.31    -4.90     -1.59    0.000e+00           0   0.000e+00
Hydrohalite      -2.86    -1.61      1.25    0.000e+00           0   0.000e+00
Ice(s)            0.00    -0.00     -0.00    0.000e+00   4.392e+01   4.392e+01
Kainite              Element not present.    0.000e+00           0   0.000e+00
Kieserite        -5.54    -4.88      0.66    0.000e+00           0   0.000e+00
Labile_Salt          Element not present.    0.000e+00           0   0.000e+00
Langbeinite          Element not present.    0.000e+00           0   0.000e+00
Leonite              Element not present.    0.000e+00           0   0.000e+00
Meridianiite     -2.70    -4.91     -2.21    0.000e+00           0   0.000e+00
MgCl2:12H2O      -6.46    -3.78      2.68    0.000e+00           0   0.000e+00
MgCl2:8H2O       -7.68    -3.77      3.91    0.000e+00           0   0.000e+00
Mirabilite       -1.85    -4.38     -2.54    0.000e+00           0   0.000e+00
Na2SO4:7H2O      -2.75    -4.37     -1.62    0.000e+00           0   0.000e+00
Pentahydrite     -3.82    -4.89     -1.07    0.000e+00           0   0.000e+00
Picromerite          Element not present.    0.000e+00           0   0.000e+00
Polyhalite           Element not present.    0.000e+00           0   0.000e+00
Starkeyite       -4.40    -4.89     -0.49    0.000e+00           0   0.000e+00
Sylvite              Element not present.    0.000e+00           0   0.000e+00
Syngenite            Element not present.    0.000e+00           0   0.000e+00
Tachyhydrite         Element not present.    0.000e+00           0   0.000e+00
Thenardite       -4.02    -4.35     -0.32    0.000e+00           0   0.000e+00

-----------------------------Solution composition------------------------------

	Elements           Molality       Moles

	Cl                2.336e-01   4.878e-02
	Mg                2.337e-02   4.880e-03
	Na                2.103e-01   4.390e-02
	S                 1.169e-02   2.440e-03

----------------------------Description of solution----------------------------

                                       pH  =   6.999      Charge balance
                                       pe  =   4.000      Adjusted to redox equilibrium
                        Activity of water  =   0.992
                 Ionic strength (mol/kgw)  =   2.921e-01
                       Mass of water (kg)  =   2.088e-01
                 Total alkalinity (eq/kg)  =  -2.552e-09
                         Temperature (°C)  =  -0.80
                  Electrical balance (eq)  =   5.329e-10
 Percent error, 100*(Cat-|An|)/(Cat+|An|)  =   0.00
                               Iterations  =  12 (1416 overall)
                         Gamma iterations  =   1
                      Osmotic coefficient  =   0.89873
                                  Total H  = 2.317951e+01
                                  Total O  = 1.159951e+01

----------------------------Distribution of species----------------------------

                                                    Unscaled  Unscaled
                                Unscaled       Log       Log       Log    mole V
   Species          Molality    Activity  Molality  Activity     Gamma    cm³/mol

   H+              1.583e-07   1.001e-07    -6.801    -6.999    -0.199      0.00
   OH-             1.557e-07   9.909e-08    -6.808    -7.004    -0.196     (0)  
   H2O             5.551e+01   9.923e-01     1.744    -0.003     0.000     18.02
Cl            2.336e-01
   Cl-             2.336e-01   1.691e-01    -0.631    -0.772    -0.140     (0)  
Mg            2.337e-02
   Mg+2            2.337e-02   6.305e-03    -1.631    -2.200    -0.569     (0)  
Na            2.103e-01
   Na+             2.103e-01   1.461e-01    -0.677    -0.835    -0.158     (0)  
S(6)          1.169e-02
   SO4-2           1.169e-02   2.106e-03    -1.932    -2.677    -0.744     (0)  

------------------------------Saturation indices-------------------------------

  Phase               SI** log IAP   log K(272 K,   1 atm)

  Bischofite       -8.55     -3.76    4.78  MgCl2:6H2O
  Bloedite         -6.38     -9.24   -2.85  Na2SO4:MgSO4:4H2O
  Epsomite         -2.81     -4.90   -2.10  MgSO4:7H2O
  Halite           -3.10     -1.61    1.50  NaCl
  Hexahydrite      -3.31     -4.90   -1.59  MgSO4:6H2O
  Hydrohalite      -2.86     -1.61    1.25  NaCl:2H2O
  Ice(s)            0.00     -0.00   -0.00  H2O
  Kieserite        -5.54     -4.88    0.66  MgSO4:H2O
  Meridianiite     -2.70     -4.91   -2.21  MgSO4:11H2O
  MgCl2:12H2O      -6.46     -3.78    2.68  MgCl2:12H2O
  MgCl2:8H2O       -7.68     -3.77    3.91  MgCl2:8H2O
  Mirabilite       -1.85     -4.38   -2.54  Na2SO4:10H2O
  Na2SO4:7H2O      -2.75     -4.37   -1.62  Na2SO4:7H2O
  Pentahydrite     -3.82     -4.89   -1.07  MgSO4:5H2O
  Starkeyite       -4.40     -4.89   -0.49  MgSO4:4H2O
  Thenardite       -4.02     -4.35   -0.32  Na2SO4

**For a gas, SI = log10(fugacity). Fugacity = pressure * phi / 1 atm.
  For ideal gases, phi = 1.

Reaction step 10.

Using solution 1.	
Using pure phase assemblage 1.	
Using temperature 1.	

-------------------------------Phase assemblage--------------------------------

                                                      Moles in assemblage
Phase               SI  log IAP  log K(T, P)   Initial       Final       Delta

Anhydrite            Element not present.    0.000e+00           0   0.000e+00
Antarcticite         Element not present.    0.000e+00           0   0.000e+00
Arcanite             Element not present.    0.000e+00           0   0.000e+00
Bassanite            Element not present.    0.000e+00           0   0.000e+00
Bischofite       -8.42    -3.63      4.78    0.000e+00           0   0.000e+00
Bloedite         -6.21    -9.07     -2.86    0.000e+00           0   0.000e+00
Carnallite           Element not present.    0.000e+00           0   0.000e+00
Epsomite         -2.75    -4.84     -2.10    0.000e+00           0   0.000e+00
Glaserite            Element not present.    0.000e+00           0   0.000e+00
Glauberite           Element not present.    0.000e+00           0   0.000e+00
Gypsum               Element not present.    0.000e+00           0   0.000e+00
Halite           -3.01    -1.51      1.50    0.000e+00           0   0.000e+00
Hexahydrite      -3.25    -4.84     -1.59    0.000e+00           0   0.000e+00
Hydrohalite      -2.77    -1.52      1.24    0.000e+00           0   0.000e+00
Ice(s)            0.00    -0.00     -0.00    0.000e+00   4.522e+01   4.522e+01
Kainite              Element not present.    0.000e+00           0   0.000e+00
Kieserite        -5.49    -4.82      0.66    0.000e+00           0   0.000e+00
Labile_Salt          Element not present.    0.000e+00           0   0.000e+00
Langbeinite          Element not present.    0.000e+00           0   0.000e+00
Leonite              Element not present.    0.000e+00           0   0.000e+00
Meridianiite     -2.65    -4.86     -2.21    0.000e+00           0   0.000e+00
MgCl2:12H2O      -6.33    -3.66      2.67    0.000e+00           0   0.000e+00
MgCl2:8H2O       -7.55    -3.64      3.91    0.000e+00           0   0.000e+00
Mirabilite       -1.73    -4.27     -2.54    0.000e+00           0   0.000e+00
Na2SO4:7H2O      -2.64    -4.26     -1.62    0.000e+00           0   0.000e+00
Pentahydrite     -3.76    -4.84     -1.07    0.000e+00           0   0.000e+00
Picromerite          Element not present.    0.000e+00           0   0.000e+00
Polyhalite           Element not present.    0.000e+00           0   0.000e+00
Starkeyite       -4.34    -4.83     -0.49    0.000e+00           0   0.000e+00
Sylvite              Element not present.    0.000e+00           0   0.000e+00
Syngenite            Element not present.    0.000e+00           0   0.000e+00
Tachyhydrite         Element not present.    0.000e+00           0   0.000e+00
Thenardite       -3.91    -4.23     -0.32    0.000e+00           0   0.000e+00

-----------------------------Solution composition------------------------------

	Elements           Molality       Moles

	Cl                2.633e-01   4.878e-02
	Mg                2.634e-02   4.880e-03
	Na                2.369e-01   4.390e-02
	S                 1.317e-02   2.440e-03

----------------------------Description of solution----------------------------

                                       pH  =   6.999      Charge balance
                                       pe  =   4.000      Adjusted to redox equilibrium
                        Activity of water  =   0.991
                 Ionic strength (mol/kgw)  =   3.291e-01
                       Mass of water (kg)  =   1.853e-01
                 Total alkalinity (eq/kg)  =  -2.876e-09
                         Temperature (°C)  =  -0.90
                  Electrical balance (eq)  =   5.329e-10
 Percent error, 100*(Cat-|An|)/(Cat+|An|)  =   0.00
                               Iterations  =  13 (1417 overall)
                         Gamma iterations  =   1
                      Osmotic coefficient  =   0.89733
                                  Total H  = 2.057057e+01
                                  Total O  = 1.029505e+01

----------------------------Distribution of species----------------------------

                                                    Unscaled  Unscaled
                                Unscaled       Log       Log       Log    mole V
   Species          Molality    Activity  Molality  Activity     Gamma    cm³/mol

   H+              1.618e-07   1.002e-07    -6.791    -6.999    -0.208      0.00
   OH-             1.589e-07   9.898e-08    -6.799    -7.004    -0.206     (0)  
   H2O             5.551e+01   9.913e-01     1.744    -0.004     0.000     18.02
Cl            2.633e-01
   Cl-             2.633e-01   1.888e-01    -0.580    -0.724    -0.144     (0)  
Mg            2.634e-02
   Mg+2            2.634e-02   6.881e-03    -1.579    -2.162    -0.583     (0)  
Na            2.369e-01
   Na+             2.369e-01   1.625e-01    -0.625    -0.789    -0.164     (0)  
S(6)          1.317e-02
   SO4-2           1.317e-02   2.211e-03    -1.880    -2.655    -0.775     (0)  

------------------------------Saturation indices-------------------------------

  Phase               SI** log IAP   log K(272 K,   1 atm)

  Bischofite       -8.42     -3.63    4.78  MgCl2:6H2O
  Bloedite         -6.21     -9.07   -2.86  Na2SO4:MgSO4:4H2O
  Epsomite         -2.75     -4.84   -2.10  MgSO4:7H2O
  Halite           -3.01     -1.51    1.50  NaCl
  Hexahydrite      -3.25     -4.84   -1.59  MgSO4:6H2O
  Hydrohalite      -2.77     -1.52    1.24  NaCl:2H2O
  Ice(s)            0.00     -0.00   -0.00  H2O
  Kieserite        -5.49     -4.82    0.66  MgSO4:H2O
  Meridianiite     -2.65     -4.86   -2.21  MgSO4:11H2O
  MgCl2:12H2O      -6.33     -3.66    2.67  MgCl2:12H2O
  MgCl2:8H2O       -7.55     -3.64    3.91  MgCl2:8H2O
  Mirabilite       -1.73     -4.27   -2.54  Na2SO4:10H2O
  Na2SO4:7H2O      -2.64     -4.26   -1.62  Na2SO4:7H2O
  Pentahydrite     -3.76     -4.84   -1.07  MgSO4:5H2O
  Starkeyite       -4.34     -4.83   -0.49  MgSO4:4H2O
  Thenardite       -3.91     -4.23   -0.32  Na2SO4

**For a gas, SI = log10(fugacity). Fugacity = pressure * phi / 1 atm.
  For ideal gases, phi = 1.

Reaction step 11.

Using solution 1.	
Using pure phase assemblage 1.	
Using temperature 1.	

-------------------------------Phase assemblage--------------------------------

                                                      Moles in assemblage
Phase               SI  log IAP  log K(T, P)   Initial       Final       Delta

Anhydrite            Element not present.    0.000e+00           0   0.000e+00
Antarcticite         Element not present.    0.000e+00           0   0.000e+00
Arcanite             Element not present.    0.000e+00           0   0.000e+00
Bassanite            Element not present.    0.000e+00           0   0.000e+00
Bischofite       -8.30    -3.52      4.78    0.000e+00           0   0.000e+00
Bloedite         -6.06    -8.92     -2.86    0.000e+00           0   0.000e+00
Carnallite           Element not present.    0.000e+00           0   0.000e+00
Epsomite         -2.70    -4.79     -2.10    0.000e+00           0   0.000e+00
Glaserite            Element not present.    0.000e+00           0   0.000e+00
Glauberite           Element not present.    0.000e+00           0   0.000e+00
Gypsum               Element not present.    0.000e+00           0   0.000e+00
Halite           -2.92    -1.43      1.49    0.000e+00           0   0.000e+00
Hexahydrite      -3.20    -4.79     -1.59    0.000e+00           0   0.000e+00
Hydrohalite      -2.68    -1.44      1.24    0.000e+00           0   0.000e+00
Ice(s)            0.00    -0.00     -0.00    0.000e+00   4.626e+01   4.626e+01
Kainite              Element not present.    0.000e+00           0   0.000e+00
Kieserite        -5.44    -4.77      0.67    0.000e+00           0   0.000e+00
Labile_Salt          Element not present.    0.000e+00           0   0.000e+00
Langbeinite          Element not present.    0.000e+00           0   0.000e+00
Leonite              Element not present.    0.000e+00           0   0.000e+00
[...]

  Bischofite       -2.57      2.50    5.07  MgCl2:6H2O
  Bloedite         -2.20     -6.18   -3.99  Na2SO4:MgSO4:4H2O
  Epsomite         -0.57     -3.10   -2.53  MgSO4:7H2O
  Halite           -0.28      0.95    1.23  NaCl
  Hexahydrite      -1.25     -2.95   -1.70  MgSO4:6H2O
  Hydrohalite      -0.00      0.65    0.65  NaCl:2H2O
  Ice(s)            0.00     -0.15   -0.15  H2O
  Kieserite        -3.82     -2.20    1.62  MgSO4:H2O
  Meridianiite      0.00     -3.70   -3.70  MgSO4:11H2O
  MgCl2:12H2O      -0.02      1.60    1.62  MgCl2:12H2O
  MgCl2:8H2O       -1.29      2.20    3.49  MgCl2:8H2O
  Mirabilite       -0.41     -5.04   -4.63  Na2SO4:10H2O
  Na2SO4:7H2O      -1.40     -4.59   -3.19  Na2SO4:7H2O
  Pentahydrite     -1.81     -2.80   -0.98  MgSO4:5H2O
  Starkeyite       -2.45     -2.65   -0.20  MgSO4:4H2O
  Thenardite       -2.98     -3.54   -0.56  Na2SO4

**For a gas, SI = log10(fugacity). Fugacity = pressure * phi / 1 atm.
  For ideal gases, phi = 1.

Reaction step 353.

Using solution 1.	
Using pure phase assemblage 1.	
Using temperature 1.	

-------------------------------Phase assemblage--------------------------------

                                                      Moles in assemblage
Phase               SI  log IAP  log K(T, P)   Initial       Final       Delta

Anhydrite            Element not present.    0.000e+00           0   0.000e+00
Antarcticite         Element not present.    0.000e+00           0   0.000e+00
Arcanite             Element not present.    0.000e+00           0   0.000e+00
Bassanite            Element not present.    0.000e+00           0   0.000e+00
Bischofite       -2.57     2.51      5.08    0.000e+00           0   0.000e+00
Bloedite         -2.21    -6.20     -3.99    0.000e+00           0   0.000e+00
Carnallite           Element not present.    0.000e+00           0   0.000e+00
Epsomite         -0.57    -3.10     -2.53    0.000e+00           0   0.000e+00
Glaserite            Element not present.    0.000e+00           0   0.000e+00
Glauberite           Element not present.    0.000e+00           0   0.000e+00
Gypsum               Element not present.    0.000e+00           0   0.000e+00
Halite           -0.28     0.95      1.23    0.000e+00           0   0.000e+00
Hexahydrite      -1.25    -2.95     -1.70    0.000e+00           0   0.000e+00
Hydrohalite       0.00     0.65      0.65    0.000e+00   4.295e-02   4.295e-02
Ice(s)            0.00    -0.15     -0.15    0.000e+00   5.534e+01   5.534e+01
Kainite              Element not present.    0.000e+00           0   0.000e+00
Kieserite        -3.82    -2.20      1.62    0.000e+00           0   0.000e+00
Labile_Salt          Element not present.    0.000e+00           0   0.000e+00
Langbeinite          Element not present.    0.000e+00           0   0.000e+00
Leonite              Element not present.    0.000e+00           0   0.000e+00
Meridianiite      0.00    -3.70     -3.70    0.000e+00   2.407e-03   2.407e-03
MgCl2:12H2O      -0.02     1.60      1.62    0.000e+00           0   0.000e+00
MgCl2:8H2O       -1.28     2.21      3.49    0.000e+00           0   0.000e+00
Mirabilite       -0.42    -5.06     -4.64    0.000e+00           0   0.000e+00
Na2SO4:7H2O      -1.41    -4.60     -3.20    0.000e+00           0   0.000e+00
Pentahydrite     -1.82    -2.80     -0.98    0.000e+00           0   0.000e+00
Picromerite          Element not present.    0.000e+00           0   0.000e+00
Polyhalite           Element not present.    0.000e+00           0   0.000e+00
Starkeyite       -2.45    -2.65     -0.20    0.000e+00           0   0.000e+00
Sylvite              Element not present.    0.000e+00           0   0.000e+00
Syngenite            Element not present.    0.000e+00           0   0.000e+00
Tachyhydrite         Element not present.    0.000e+00           0   0.000e+00
Thenardite       -2.99    -3.55     -0.56    0.000e+00           0   0.000e+00

-----------------------------Solution composition------------------------------

	Elements           Molality       Moles

	Cl                6.011e+00   5.827e-03
	Mg                2.551e+00   2.473e-03
	Na                9.771e-01   9.473e-04
	S                 3.414e-02   3.309e-05

----------------------------Description of solution----------------------------

                                       pH  =   6.783      Charge balance
                                       pe  =   4.000      Adjusted to redox equilibrium
                        Activity of water  =   0.707
                 Ionic strength (mol/kgw)  =   8.664e+00
                       Mass of water (kg)  =   9.695e-04
                 Total alkalinity (eq/kg)  =  -5.496e-07
                         Temperature (°C)  = -35.20
                  Electrical balance (eq)  =   5.329e-10
 Percent error, 100*(Cat-|An|)/(Cat+|An|)  =   0.00
                               Iterations  =  57 (1461 overall)
                         Gamma iterations  =   1
                      Osmotic coefficient  =   2.01009
                                  Total H  = 1.076301e-01
                                  Total O  = 5.394743e-02

----------------------------Distribution of species----------------------------

                                                    Unscaled  Unscaled
                                Unscaled       Log       Log       Log    mole V
   Species          Molality    Activity  Molality  Activity     Gamma    cm³/mol

   H+              6.919e-07   1.649e-07    -6.160    -6.783    -0.623      0.00
   OH-             1.423e-07   4.288e-08    -6.847    -7.368    -0.521     (0)  
   H2O             5.551e+01   7.070e-01     1.744    -0.151     0.000     18.45
Cl            6.011e+00
   Cl-             6.011e+00   2.189e+01     0.779     1.340     0.561     (0)  
Mg            2.551e+00
   Mg+2            2.551e+00   5.379e+00     0.407     0.731     0.324     (0)  
Na            9.771e-01
   Na+             9.771e-01   4.101e-01    -0.010    -0.387    -0.377     (0)  
S(6)          3.414e-02
   SO4-2           3.414e-02   1.675e-03    -1.467    -2.776    -1.309     (0)  

------------------------------Saturation indices-------------------------------

  Phase               SI** log IAP   log K(237 K,   1 atm)

  Bischofite       -2.57      2.51    5.08  MgCl2:6H2O
  Bloedite         -2.21     -6.20   -3.99  Na2SO4:MgSO4:4H2O
  Epsomite         -0.57     -3.10   -2.53  MgSO4:7H2O
  Halite           -0.28      0.95    1.23  NaCl
  Hexahydrite      -1.25     -2.95   -1.70  MgSO4:6H2O
  Hydrohalite       0.00      0.65    0.65  NaCl:2H2O
  Ice(s)            0.00     -0.15   -0.15  H2O
  Kieserite        -3.82     -2.20    1.62  MgSO4:H2O
  Meridianiite      0.00     -3.70   -3.70  MgSO4:11H2O
  MgCl2:12H2O      -0.02      1.60    1.62  MgCl2:12H2O
  MgCl2:8H2O       -1.28      2.21    3.49  MgCl2:8H2O
  Mirabilite       -0.42     -5.06   -4.64  Na2SO4:10H2O
  Na2SO4:7H2O      -1.41     -4.60   -3.20  Na2SO4:7H2O
  Pentahydrite     -1.82     -2.80   -0.98  MgSO4:5H2O
  Starkeyite       -2.45     -2.65   -0.20  MgSO4:4H2O
  Thenardite       -2.99     -3.55   -0.56  Na2SO4

**For a gas, SI = log10(fugacity). Fugacity = pressure * phi / 1 atm.
  For ideal gases, phi = 1.

Reaction step 354.

Using solution 1.	
Using pure phase assemblage 1.	
Using temperature 1.	

-------------------------------Phase assemblage--------------------------------

                                                      Moles in assemblage
Phase               SI  log IAP  log K(T, P)   Initial       Final       Delta

Anhydrite            Element not present.    0.000e+00           0   0.000e+00
Antarcticite         Element not present.    0.000e+00           0   0.000e+00
Arcanite             Element not present.    0.000e+00           0   0.000e+00
Bassanite            Element not present.    0.000e+00           0   0.000e+00
Bischofite       -2.56     2.52      5.08    0.000e+00           0   0.000e+00
Bloedite         -2.22    -6.21     -3.99    0.000e+00           0   0.000e+00
Carnallite           Element not present.    0.000e+00           0   0.000e+00
Epsomite         -0.57    -3.10     -2.53    0.000e+00           0   0.000e+00
Glaserite            Element not present.    0.000e+00           0   0.000e+00
Glauberite           Element not present.    0.000e+00           0   0.000e+00
Gypsum               Element not present.    0.000e+00           0   0.000e+00
Halite           -0.28     0.95      1.23    0.000e+00           0   0.000e+00
Hexahydrite      -1.25    -2.95     -1.70    0.000e+00           0   0.000e+00
Hydrohalite       0.00     0.65      0.65    0.000e+00   4.296e-02   4.296e-02
Ice(s)            0.00    -0.15     -0.15    0.000e+00   5.534e+01   5.534e+01
Kainite              Element not present.    0.000e+00           0   0.000e+00
Kieserite        -3.82    -2.20      1.63    0.000e+00           0   0.000e+00
Labile_Salt          Element not present.    0.000e+00           0   0.000e+00
Langbeinite          Element not present.    0.000e+00           0   0.000e+00
Leonite              Element not present.    0.000e+00           0   0.000e+00
Meridianiite      0.00    -3.71     -3.71    0.000e+00   2.407e-03   2.407e-03
MgCl2:12H2O      -0.01     1.61      1.62    0.000e+00           0   0.000e+00
MgCl2:8H2O       -1.27     2.21      3.49    0.000e+00           0   0.000e+00
Mirabilite       -0.43    -5.07     -4.64    0.000e+00           0   0.000e+00
Na2SO4:7H2O      -1.42    -4.62     -3.20    0.000e+00           0   0.000e+00
Pentahydrite     -1.82    -2.80     -0.98    0.000e+00           0   0.000e+00
Picromerite          Element not present.    0.000e+00           0   0.000e+00
Polyhalite           Element not present.    0.000e+00           0   0.000e+00
Starkeyite       -2.45    -2.65     -0.19    0.000e+00           0   0.000e+00
Sylvite              Element not present.    0.000e+00           0   0.000e+00
Syngenite            Element not present.    0.000e+00           0   0.000e+00
Tachyhydrite         Element not present.    0.000e+00           0   0.000e+00
Thenardite       -3.01    -3.56     -0.56    0.000e+00           0   0.000e+00

-----------------------------Solution composition------------------------------

	Elements           Molality       Moles

	Cl                6.019e+00   5.817e-03
	Mg                2.558e+00   2.473e-03
	Na                9.692e-01   9.366e-04
	S                 3.369e-02   3.256e-05

----------------------------Description of solution----------------------------

                                       pH  =   6.782      Charge balance
                                       pe  =   4.000      Adjusted to redox equilibrium
                        Activity of water  =   0.706
                 Ionic strength (mol/kgw)  =   8.678e+00
                       Mass of water (kg)  =   9.664e-04
                 Total alkalinity (eq/kg)  =  -5.514e-07
                         Temperature (°C)  = -35.30
                  Electrical balance (eq)  =   5.329e-10
 Percent error, 100*(Cat-|An|)/(Cat+|An|)  =   0.00
                               Iterations  =  57 (1461 overall)
                         Gamma iterations  =   1
                      Osmotic coefficient  =   2.01435
                                  Total H  = 1.072899e-01
                                  Total O  = 5.377519e-02

----------------------------Distribution of species----------------------------

                                                    Unscaled  Unscaled
                                Unscaled       Log       Log       Log    mole V
   Species          Molality    Activity  Molality  Activity     Gamma    cm³/mol

   H+              6.934e-07   1.651e-07    -6.159    -6.782    -0.623      0.00
   OH-             1.420e-07   4.278e-08    -6.848    -7.369    -0.521     (0)  
   H2O             5.551e+01   7.063e-01     1.744    -0.151     0.000     18.45
Cl            6.019e+00
   Cl-             6.019e+00   2.205e+01     0.780     1.343     0.564     (0)  
Mg            2.558e+00
   Mg+2            2.558e+00   5.424e+00     0.408     0.734     0.326     (0)  
Na            9.692e-01
   Na+             9.692e-01   4.061e-01    -0.014    -0.391    -0.378     (0)  
S(6)          3.369e-02
   SO4-2           3.369e-02   1.661e-03    -1.473    -2.780    -1.307     (0)  

------------------------------Saturation indices-------------------------------

  Phase               SI** log IAP   log K(237 K,   1 atm)

  Bischofite       -2.56      2.52    5.08  MgCl2:6H2O
  Bloedite         -2.22     -6.21   -3.99  Na2SO4:MgSO4:4H2O
  Epsomite         -0.57     -3.10   -2.53  MgSO4:7H2O
  Halite           -0.28      0.95    1.23  NaCl
  Hexahydrite      -1.25     -2.95   -1.70  MgSO4:6H2O
  Hydrohalite       0.00      0.65    0.65  NaCl:2H2O
  Ice(s)            0.00     -0.15   -0.15  H2O
  Kieserite        -3.82     -2.20    1.63  MgSO4:H2O
  Meridianiite      0.00     -3.71   -3.71  MgSO4:11H2O
  MgCl2:12H2O      -0.01      1.61    1.62  MgCl2:12H2O
  MgCl2:8H2O       -1.27      2.21    3.49  MgCl2:8H2O
  Mirabilite       -0.43     -5.07   -4.64  Na2SO4:10H2O
  Na2SO4:7H2O      -1.42     -4.62   -3.20  Na2SO4:7H2O
  Pentahydrite     -1.82     -2.80   -0.98  MgSO4:5H2O
  Starkeyite       -2.45     -2.65   -0.19  MgSO4:4H2O
  Thenardite       -3.01     -3.56   -0.56  Na2SO4

**For a gas, SI = log10(fugacity). Fugacity = pressure * phi / 1 atm.
  For ideal gases, phi = 1.

Reaction step 355.

ERROR:               Ice(s) Pure phase has not converged. 	Residual: -3.469813e-01

Using solution 1.	
Using pure phase assemblage 1.	
Using temperature 1.	

-------------------------------Phase assemblage--------------------------------

                                                      Moles in assemblage
Phase               SI  log IAP  log K(T, P)   Initial       Final       Delta

Anhydrite            Element not present.    0.000e+00           0   0.000e+00
Antarcticite         Element not present.    0.000e+00           0   0.000e+00
Arcanite             Element not present.    0.000e+00           0   0.000e+00
Bassanite            Element not present.    0.000e+00           0   0.000e+00
Bischofite      -10.02    -4.94      5.08    0.000e+00           0   0.000e+00
Bloedite        -11.88   -15.88     -4.00    0.000e+00           0   0.000e+00
Carnallite           Element not present.    0.000e+00           0   0.000e+00
Epsomite         -5.15    -7.69     -2.54    0.000e+00           0   0.000e+00
Glaserite            Element not present.    0.000e+00           0   0.000e+00
Glauberite           Element not present.    0.000e+00           0   0.000e+00
Gypsum               Element not present.    0.000e+00           0   0.000e+00
Halite           -3.95    -2.72      1.23    0.000e+00           0   0.000e+00
Hexahydrite      -5.99    -7.69     -1.70    0.000e+00           0   0.000e+00
Hydrohalite      -3.37    -2.72      0.65    0.000e+00           0   0.000e+00
Ice(s)            0.15    -0.00     -0.15    0.000e+00           0   0.000e+00
Kainite              Element not present.    0.000e+00           0   0.000e+00
Kieserite        -9.32    -7.69      1.63    0.000e+00           0   0.000e+00
Labile_Salt          Element not present.    0.000e+00           0   0.000e+00
Langbeinite          Element not present.    0.000e+00           0   0.000e+00
Leonite              Element not present.    0.000e+00           0   0.000e+00
Meridianiite     -3.98    -7.69     -3.71    0.000e+00           0   0.000e+00
MgCl2:12H2O      -6.56    -4.94      1.61    0.000e+00           0   0.000e+00
MgCl2:8H2O       -8.43    -4.94      3.49    0.000e+00           0   0.000e+00
Mirabilite       -3.55    -8.20     -4.65    0.000e+00   2.436e-03   2.436e-03
Na2SO4:7H2O      -4.99    -8.20     -3.21    0.000e+00           0   0.000e+00
Pentahydrite     -6.71    -7.69     -0.98    0.000e+00           0   0.000e+00
Picromerite          Element not present.    0.000e+00           0   0.000e+00
Polyhalite           Element not present.    0.000e+00           0   0.000e+00
Starkeyite       -7.49    -7.69     -0.19    0.000e+00           0   0.000e+00
Sylvite              Element not present.    0.000e+00           0   0.000e+00
Syngenite            Element not present.    0.000e+00           0   0.000e+00
Tachyhydrite         Element not present.    0.000e+00           0   0.000e+00
Thenardite       -7.63    -8.19     -0.56    0.000e+00           0   0.000e+00

-----------------------------Solution composition------------------------------

	Elements           Molality       Moles

	Cl                4.880e-02   4.878e-02
	Mg                4.882e-03   4.880e-03
	Na                3.905e-02   3.903e-02
	S                 4.233e-06   4.232e-06

----------------------------Description of solution----------------------------

                                       pH  =   6.999      Charge balance
                                       pe  =   4.000      Adjusted to redox equilibrium
                        Activity of water  =   0.998
                 Ionic strength (mol/kgw)  =   5.370e-02
                       Mass of water (kg)  =   9.996e-01
                 Total alkalinity (eq/kg)  =  -5.331e-10
                         Temperature (°C)  = -35.40
                  Electrical balance (eq)  =   5.329e-10
 Percent error, 100*(Cat-|An|)/(Cat+|An|)  =   0.00
                               Iterations  = 401 (3209 overall)
                         Gamma iterations  =   0
                      Osmotic coefficient  =   2.01940
                                  Total H  = 1.109699e+02
                                  Total O  = 5.548496e+01

----------------------------Distribution of species----------------------------

                                                    Unscaled  Unscaled
                                Unscaled       Log       Log       Log    mole V
   Species          Molality    Activity  Molality  Activity     Gamma    cm³/mol

   H+              1.002e-07   1.002e-07    -6.999    -6.999     0.000      0.00
   OH-             9.965e-08   9.965e-08    -7.002    -7.002     0.000     (0)  
   H2O             5.551e+01   9.983e-01     1.744    -0.001     0.000     18.45
Cl            4.880e-02
   Cl-             4.880e-02   4.880e-02    -1.312    -1.312     0.000     (0)  
Mg            4.882e-03
   Mg+2            4.882e-03   4.882e-03    -2.311    -2.311     0.000     (0)  
Na            3.905e-02
   Na+             3.905e-02   3.905e-02    -1.408    -1.408     0.000     (0)  
S(6)          4.233e-06
   SO4-2           4.233e-06   4.233e-06    -5.373    -5.373     0.000     (0)  

------------------------------Saturation indices-------------------------------

  Phase               SI** log IAP   log K(237 K,   1 atm)

  Bischofite      -10.02     -4.94    5.08  MgCl2:6H2O
  Bloedite        -11.88    -15.88   -4.00  Na2SO4:MgSO4:4H2O
  Epsomite         -5.15     -7.69   -2.54  MgSO4:7H2O
  Halite           -3.95     -2.72    1.23  NaCl
  Hexahydrite      -5.99     -7.69   -1.70  MgSO4:6H2O
  Hydrohalite      -3.37     -2.72    0.65  NaCl:2H2O
  Ice(s)            0.15     -0.00   -0.15  H2O
  Kieserite        -9.32     -7.69    1.63  MgSO4:H2O
  Meridianiite     -3.98     -7.69   -3.71  MgSO4:11H2O
  MgCl2:12H2O      -6.56     -4.94    1.61  MgCl2:12H2O
  MgCl2:8H2O       -8.43     -4.94    3.49  MgCl2:8H2O
  Mirabilite       -3.55     -8.20   -4.65  Na2SO4:10H2O
  Na2SO4:7H2O      -4.99     -8.20   -3.21  Na2SO4:7H2O
  Pentahydrite     -6.71     -7.69   -0.98  MgSO4:5H2O
  Starkeyite       -7.49     -7.69   -0.19  MgSO4:4H2O
  Thenardite       -7.63     -8.19   -0.56  Na2SO4

**For a gas, SI = log10(fugacity). Fugacity = pressure * phi / 1 atm.
  For ideal gases, phi = 1.

ERROR: Numerical method failed on all combinations of convergence parameters, cell/soln/mix 1
-------------------------------
End of Run after 55.75 Seconds.
-------------------------------

