   Input file: C:\Users\nswol\Dropbox\Graduate School\Research\UTIG\Projects\2021-Wolfenbarger-Bulk Properties\PHREEQC\Binary\NaCl_1ppt.pqi
  Output file: C:\Users\nswol\Dropbox\Graduate School\Research\UTIG\Projects\2021-Wolfenbarger-Bulk Properties\PHREEQC\Binary\NaCl_1ppt.pqo
Database file: C:\Program Files (x86)\USGS\Phreeqc Interactive 3.7.3-15968\database\ColdChem.dat

------------------
Reading data base.
------------------

	SOLUTION_MASTER_SPECIES								
	SOLUTION_SPECIES								
	PHASES								
	PITZER								
------------------------------------
Reading input data for simulation 1.
------------------------------------

	DATABASE C:\Program Files (x86)\USGS\Phreeqc Interactive 3.7.3-15968\database\ColdChem.dat
	TITLE NaCl (1 ppt)
	SOLUTION
		units	mol/kgw
			Na	0.0171	
			Cl	0.0171	
	EQUILIBRIUM_PHASES
		Halite		0.0	0.0
		Hydrohalite		0.0	0.0
		Sylvite		0.0	0.0
		Bischofite		0.0	0.0
		MgCl2:8H2O		0.0	0.0
		MgCl2:12H2O		0.0	0.0
		Antarcticite	0.0	0.0
		Tachyhydrite	0.0	0.0
		Carnallite		0.0	0.0
		Thenardite		0.0	0.0
		Na2SO4:7H2O		0.0	0.0
		Mirabilite		0.0	0.0
		Arcanite		0.0	0.0
		Kieserite		0.0	0.0
		Starkeyite		0.0	0.0
		Pentahydrite	0.0	0.0
		Hexahydrite		0.0	0.0
		Epsomite		0.0	0.0
		Meridianiite	0.0	0.0
		Anhydrite		0.0	0.0
		Bassanite		0.0	0.0
		Gypsum		0.0	0.0
		Glaserite		0.0	0.0
		Bloedite		0.0	0.0
		Glauberite		0.0	0.0
		Labile_Salt		0.0	0.0
		Leonite		0.0	0.0
		Picromerite		0.0	0.0
		Langbeinite		0.0	0.0
		Syngenite		0.0	0.0
		Kainite		0.0	0.0
		Polyhalite		0.0	0.0
		Ice(s) 		0.0	0.0
	REACTION_TEMPERATURE
	        0 -30.0 in 301 steps
	END
-----
TITLE
-----

 NaCl (1 ppt)

-------------------------------------------
Beginning of initial solution calculations.
-------------------------------------------

Initial solution 1.	

-----------------------------Solution composition------------------------------

	Elements           Molality       Moles

	Cl                1.710e-02   1.710e-02
	Na                1.710e-02   1.710e-02

----------------------------Description of solution----------------------------

                                       pH  =   7.000    
                                       pe  =   4.000    
                        Activity of water  =   0.999
                 Ionic strength (mol/kgw)  =   1.710e-02
                       Mass of water (kg)  =   1.000e+00
                 Total alkalinity (eq/kg)  =  -6.804e-11
                         Temperature (°C)  =  25.00
                  Electrical balance (eq)  =   6.804e-11
 Percent error, 100*(Cat-|An|)/(Cat+|An|)  =   0.00
                               Iterations  =   4
                         Gamma iterations  =   3
                      Osmotic coefficient  =   0.96067
                                  Total H  = 1.110186e+02
                                  Total O  = 5.550930e+01

----------------------------Distribution of species----------------------------

                                                    Unscaled  Unscaled
                                Unscaled       Log       Log       Log    mole V
   Species          Molality    Activity  Molality  Activity     Gamma    cm³/mol

   H+              1.150e-07   1.000e-07    -6.939    -7.000    -0.061      0.00
   OH-             1.149e-07   9.994e-08    -6.940    -7.000    -0.061     (0)  
   H2O             5.551e+01   9.994e-01     1.744    -0.000     0.000     18.07
Cl            1.710e-02
   Cl-             1.710e-02   1.503e-02    -1.767    -1.823    -0.056     (0)  
Na            1.710e-02
   Na+             1.710e-02   1.503e-02    -1.767    -1.823    -0.056     (0)  

------------------------------Saturation indices-------------------------------

  Phase               SI** log IAP   log K(298 K,   1 atm)

  Halite           -5.24     -3.65    1.59  NaCl
  Hydrohalite      -5.22     -3.65    1.57  NaCl:2H2O
  Ice(s)           -0.10     -0.00    0.10  H2O

**For a gas, SI = log10(fugacity). Fugacity = pressure * phi / 1 atm.
  For ideal gases, phi = 1.

-----------------------------------------
Beginning of batch-reaction calculations.
-----------------------------------------

Reaction step 1.

WARNING: Element Ca is contained in Anhydrite (which has 0.0 mass),	
but is not in solution or other phases.
WARNING: Element S is contained in Anhydrite (which has 0.0 mass),	
but is not in solution or other phases.
WARNING: Element Ca is contained in Antarcticite (which has 0.0 mass),	
but is not in solution or other phases.
WARNING: Element K is contained in Arcanite (which has 0.0 mass),	
but is not in solution or other phases.
WARNING: Element S is contained in Arcanite (which has 0.0 mass),	
but is not in solution or other phases.
WARNING: Element Ca is contained in Bassanite (which has 0.0 mass),	
but is not in solution or other phases.
WARNING: Element S is contained in Bassanite (which has 0.0 mass),	
but is not in solution or other phases.
WARNING: Element Mg is contained in Bischofite (which has 0.0 mass),	
but is not in solution or other phases.
WARNING: Element Mg is contained in Bloedite (which has 0.0 mass),	
but is not in solution or other phases.
WARNING: Element S is contained in Bloedite (which has 0.0 mass),	
but is not in solution or other phases.
WARNING: Element K is contained in Carnallite (which has 0.0 mass),	
but is not in solution or other phases.
WARNING: Element Mg is contained in Carnallite (which has 0.0 mass),	
but is not in solution or other phases.
WARNING: Element Mg is contained in Epsomite (which has 0.0 mass),	
but is not in solution or other phases.
WARNING: Element S is contained in Epsomite (which has 0.0 mass),	
but is not in solution or other phases.
WARNING: Element K is contained in Glaserite (which has 0.0 mass),	
but is not in solution or other phases.
WARNING: Element S is contained in Glaserite (which has 0.0 mass),	
but is not in solution or other phases.
WARNING: Element Ca is contained in Glauberite (which has 0.0 mass),	
but is not in solution or other phases.
WARNING: Element S is contained in Glauberite (which has 0.0 mass),	
but is not in solution or other phases.
WARNING: Element Ca is contained in Gypsum (which has 0.0 mass),	
but is not in solution or other phases.
WARNING: Element S is contained in Gypsum (which has 0.0 mass),	
but is not in solution or other phases.
WARNING: Element Mg is contained in Hexahydrite (which has 0.0 mass),	
but is not in solution or other phases.
WARNING: Element S is contained in Hexahydrite (which has 0.0 mass),	
but is not in solution or other phases.
WARNING: Element K is contained in Kainite (which has 0.0 mass),	
but is not in solution or other phases.
WARNING: Element Mg is contained in Kainite (which has 0.0 mass),	
but is not in solution or other phases.
WARNING: Element S is contained in Kainite (which has 0.0 mass),	
but is not in solution or other phases.
WARNING: Element Mg is contained in Kieserite (which has 0.0 mass),	
but is not in solution or other phases.
WARNING: Element S is contained in Kieserite (which has 0.0 mass),	
but is not in solution or other phases.
WARNING: Element Ca is contained in Labile_Salt (which has 0.0 mass),	
but is not in solution or other phases.
WARNING: Element S is contained in Labile_Salt (which has 0.0 mass),	
but is not in solution or other phases.
WARNING: Element K is contained in Langbeinite (which has 0.0 mass),	
but is not in solution or other phases.
WARNING: Element Mg is contained in Langbeinite (which has 0.0 mass),	
but is not in solution or other phases.
WARNING: Element S is contained in Langbeinite (which has 0.0 mass),	
but is not in solution or other phases.
WARNING: Element K is contained in Leonite (which has 0.0 mass),	
but is not in solution or other phases.
WARNING: Element Mg is contained in Leonite (which has 0.0 mass),	
but is not in solution or other phases.
WARNING: Element S is contained in Leonite (which has 0.0 mass),	
but is not in solution or other phases.
WARNING: Element Mg is contained in Meridianiite (which has 0.0 mass),	
but is not in solution or other phases.
WARNING: Element S is contained in Meridianiite (which has 0.0 mass),	
but is not in solution or other phases.
WARNING: Element Mg is contained in MgCl2:12H2O (which has 0.0 mass),	
but is not in solution or other phases.
WARNING: Element Mg is contained in MgCl2:8H2O (which has 0.0 mass),	
but is not in solution or other phases.
WARNING: Element S is contained in Mirabilite (which has 0.0 mass),	
but is not in solution or other phases.
WARNING: Element S is contained in Na2SO4:7H2O (which has 0.0 mass),	
but is not in solution or other phases.
WARNING: Element Mg is contained in Pentahydrite (which has 0.0 mass),	
but is not in solution or other phases.
WARNING: Element S is contained in Pentahydrite (which has 0.0 mass),	
but is not in solution or other phases.
WARNING: Element K is contained in Picromerite (which has 0.0 mass),	
but is not in solution or other phases.
WARNING: Element Mg is contained in Picromerite (which has 0.0 mass),	
but is not in solution or other phases.
WARNING: Element S is contained in Picromerite (which has 0.0 mass),	
but is not in solution or other phases.
WARNING: Element Ca is contained in Polyhalite (which has 0.0 mass),	
but is not in solution or other phases.
WARNING: Element K is contained in Polyhalite (which has 0.0 mass),	
but is not in solution or other phases.
WARNING: Element Mg is contained in Polyhalite (which has 0.0 mass),	
but is not in solution or other phases.
WARNING: Element S is contained in Polyhalite (which has 0.0 mass),	
but is not in solution or other phases.
WARNING: Element Mg is contained in Starkeyite (which has 0.0 mass),	
but is not in solution or other phases.
WARNING: Element S is contained in Starkeyite (which has 0.0 mass),	
but is not in solution or other phases.
WARNING: Element K is contained in Sylvite (which has 0.0 mass),	
but is not in solution or other phases.
WARNING: Element Ca is contained in Syngenite (which has 0.0 mass),	
but is not in solution or other phases.
WARNING: Element K is contained in Syngenite (which has 0.0 mass),	
but is not in solution or other phases.
WARNING: Element S is contained in Syngenite (which has 0.0 mass),	
but is not in solution or other phases.
WARNING: Element Ca is contained in Tachyhydrite (which has 0.0 mass),	
but is not in solution or other phases.
WARNING: Element Mg is contained in Tachyhydrite (which has 0.0 mass),	
but is not in solution or other phases.
WARNING: Element S is contained in Thenardite (which has 0.0 mass),	
but is not in solution or other phases.
Using solution 1.	
Using pure phase assemblage 1.	
Using temperature 1.	

-------------------------------Phase assemblage--------------------------------

                                                      Moles in assemblage
Phase               SI  log IAP  log K(T, P)   Initial       Final       Delta

Anhydrite            Element not present.    0.000e+00           0   0.000e+00
Antarcticite         Element not present.    0.000e+00           0   0.000e+00
Arcanite             Element not present.    0.000e+00           0   0.000e+00
Bassanite            Element not present.    0.000e+00           0   0.000e+00
Bischofite           Element not present.    0.000e+00           0   0.000e+00
Bloedite             Element not present.    0.000e+00           0   0.000e+00
Carnallite           Element not present.    0.000e+00           0   0.000e+00
Epsomite             Element not present.    0.000e+00           0   0.000e+00
Glaserite            Element not present.    0.000e+00           0   0.000e+00
Glauberite           Element not present.    0.000e+00           0   0.000e+00
Gypsum               Element not present.    0.000e+00           0   0.000e+00
Halite           -5.14    -3.64      1.50    0.000e+00           0   0.000e+00
Hexahydrite          Element not present.    0.000e+00           0   0.000e+00
Hydrohalite      -4.90    -3.64      1.26    0.000e+00           0   0.000e+00
Ice(s)           -0.00    -0.00      0.00    0.000e+00           0   0.000e+00
Kainite              Element not present.    0.000e+00           0   0.000e+00
Kieserite            Element not present.    0.000e+00           0   0.000e+00
Labile_Salt          Element not present.    0.000e+00           0   0.000e+00
Langbeinite          Element not present.    0.000e+00           0   0.000e+00
Leonite              Element not present.    0.000e+00           0   0.000e+00
Meridianiite         Element not present.    0.000e+00           0   0.000e+00
MgCl2:12H2O          Element not present.    0.000e+00           0   0.000e+00
MgCl2:8H2O           Element not present.    0.000e+00           0   0.000e+00
Mirabilite           Element not present.    0.000e+00           0   0.000e+00
Na2SO4:7H2O          Element not present.    0.000e+00           0   0.000e+00
Pentahydrite         Element not present.    0.000e+00           0   0.000e+00
Picromerite          Element not present.    0.000e+00           0   0.000e+00
Polyhalite           Element not present.    0.000e+00           0   0.000e+00
Starkeyite           Element not present.    0.000e+00           0   0.000e+00
Sylvite              Element not present.    0.000e+00           0   0.000e+00
Syngenite            Element not present.    0.000e+00           0   0.000e+00
Tachyhydrite         Element not present.    0.000e+00           0   0.000e+00
Thenardite           Element not present.    0.000e+00           0   0.000e+00

-----------------------------Solution composition------------------------------

	Elements           Molality       Moles

	Cl                1.710e-02   1.710e-02
	Na                1.710e-02   1.710e-02

----------------------------Description of solution----------------------------

                                       pH  =   7.000      Charge balance
                                       pe  =   4.000      Adjusted to redox equilibrium
                        Activity of water  =   0.999
                 Ionic strength (mol/kgw)  =   1.710e-02
                       Mass of water (kg)  =   1.000e+00
                 Total alkalinity (eq/kg)  =  -6.804e-11
                         Temperature (°C)  =   0.00
                  Electrical balance (eq)  =   6.804e-11
 Percent error, 100*(Cat-|An|)/(Cat+|An|)  =   0.00
                               Iterations  =   3
                         Gamma iterations  =   2
                      Osmotic coefficient  =   0.96168
                                  Total H  = 1.110186e+02
                                  Total O  = 5.550930e+01

----------------------------Distribution of species----------------------------

                                                    Unscaled  Unscaled
                                Unscaled       Log       Log       Log    mole V
   Species          Molality    Activity  Molality  Activity     Gamma    cm³/mol

   H+              1.144e-07   1.000e-07    -6.942    -7.000    -0.058      0.00
   OH-             1.143e-07   9.994e-08    -6.942    -7.000    -0.058     (0)  
   H2O             5.551e+01   9.994e-01     1.744    -0.000     0.000     18.02
Cl            1.710e-02
   Cl-             1.710e-02   1.509e-02    -1.767    -1.821    -0.054     (0)  
Na            1.710e-02
   Na+             1.710e-02   1.509e-02    -1.767    -1.821    -0.054     (0)  

------------------------------Saturation indices-------------------------------

  Phase               SI** log IAP   log K(273 K,   1 atm)

  Halite           -5.14     -3.64    1.50  NaCl
  Hydrohalite      -4.90     -3.64    1.26  NaCl:2H2O
  Ice(s)           -0.00     -0.00    0.00  H2O

**For a gas, SI = log10(fugacity). Fugacity = pressure * phi / 1 atm.
  For ideal gases, phi = 1.

Reaction step 2.

WARNING: Element Ca is contained in Anhydrite (which has 0.0 mass),	
but is not in solution or other phases.
WARNING: Element S is contained in Anhydrite (which has 0.0 mass),	
but is not in solution or other phases.
WARNING: Element Ca is contained in Antarcticite (which has 0.0 mass),	
but is not in solution or other phases.
WARNING: Element K is contained in Arcanite (which has 0.0 mass),	
but is not in solution or other phases.
WARNING: Element S is contained in Arcanite (which has 0.0 mass),	
but is not in solution or other phases.
WARNING: Element Ca is contained in Bassanite (which has 0.0 mass),	
but is not in solution or other phases.
WARNING: Element S is contained in Bassanite (which has 0.0 mass),	
but is not in solution or other phases.
WARNING: Element Mg is contained in Bischofite (which has 0.0 mass),	
but is not in solution or other phases.
WARNING: Element Mg is contained in Bloedite (which has 0.0 mass),	
but is not in solution or other phases.
WARNING: Element S is contained in Bloedite (which has 0.0 mass),	
but is not in solution or other phases.
WARNING: Element K is contained in Carnallite (which has 0.0 mass),	
but is not in solution or other phases.
WARNING: Element Mg is contained in Carnallite (which has 0.0 mass),	
but is not in solution or other phases.
WARNING: Element Mg is contained in Epsomite (which has 0.0 mass),	
but is not in solution or other phases.
WARNING: Element S is contained in Epsomite (which has 0.0 mass),	
but is not in solution or other phases.
WARNING: Element K is contained in Glaserite (which has 0.0 mass),	
but is not in solution or other phases.
WARNING: Element S is contained in Glaserite (which has 0.0 mass),	
but is not in solution or other phases.
WARNING: Element Ca is contained in Glauberite (which has 0.0 mass),	
but is not in solution or other phases.
WARNING: Element S is contained in Glauberite (which has 0.0 mass),	
but is not in solution or other phases.
WARNING: Element Ca is contained in Gypsum (which has 0.0 mass),	
but is not in solution or other phases.
WARNING: Element S is contained in Gypsum (which has 0.0 mass),	
but is not in solution or other phases.
WARNING: Element Mg is contained in Hexahydrite (which has 0.0 mass),	
but is not in solution or other phases.
WARNING: Element S is contained in Hexahydrite (which has 0.0 mass),	
but is not in solution or other phases.
WARNING: Element K is contained in Kainite (which has 0.0 mass),	
but is not in solution or other phases.
WARNING: Element Mg is contained in Kainite (which has 0.0 mass),	
but is not in solution or other phases.
WARNING: Element S is contained in Kainite (which has 0.0 mass),	
but is not in solution or other phases.
WARNING: Element Mg is contained in Kieserite (which has 0.0 mass),	
but is not in solution or other phases.
WARNING: Element S is contained in Kieserite (which has 0.0 mass),	
but is not in solution or other phases.
WARNING: Element Ca is contained in Labile_Salt (which has 0.0 mass),	
but is not in solution or other phases.
WARNING: Element S is contained in Labile_Salt (which has 0.0 mass),	
but is not in solution or other phases.
WARNING: Element K is contained in Langbeinite (which has 0.0 mass),	
but is not in solution or other phases.
WARNING: Element Mg is contained in Langbeinite (which has 0.0 mass),	
but is not in solution or other phases.
WARNING: Element S is contained in Langbeinite (which has 0.0 mass),	
but is not in solution or other phases.
WARNING: Element K is contained in Leonite (which has 0.0 mass),	
but is not in solution or other phases.
WARNING: Element Mg is contained in Leonite (which has 0.0 mass),	
but is not in solution or other phases.
WARNING: Element S is contained in Leonite (which has 0.0 mass),	
but is not in solution or other phases.
WARNING: Element Mg is contained in Meridianiite (which has 0.0 mass),	
but is not in solution or other phases.
WARNING: Element S is contained in Meridianiite (which has 0.0 mass),	
but is not in solution or other phases.
WARNING: Element Mg is contained in MgCl2:12H2O (which has 0.0 mass),	
but is not in solution or other phases.
WARNING: Element Mg is contained in MgCl2:8H2O (which has 0.0 mass),	
but is not in solution or other phases.
WARNING: Element S is contained in Mirabilite (which has 0.0 mass),	
but is not in solution or other phases.
WARNING: Element S is contained in Na2SO4:7H2O (which has 0.0 mass),	
but is not in solution or other phases.
Using solution 1.	
Using pure phase assemblage 1.	
Using temperature 1.	

-------------------------------Phase assemblage--------------------------------

                                                      Moles in assemblage
Phase               SI  log IAP  log K(T, P)   Initial       Final       Delta

Anhydrite            Element not present.    0.000e+00           0   0.000e+00
Antarcticite         Element not present.    0.000e+00           0   0.000e+00
Arcanite             Element not present.    0.000e+00           0   0.000e+00
Bassanite            Element not present.    0.000e+00           0   0.000e+00
Bischofite           Element not present.    0.000e+00           0   0.000e+00
Bloedite             Element not present.    0.000e+00           0   0.000e+00
Carnallite           Element not present.    0.000e+00           0   0.000e+00
Epsomite             Element not present.    0.000e+00           0   0.000e+00
Glaserite            Element not present.    0.000e+00           0   0.000e+00
Glauberite           Element not present.    0.000e+00           0   0.000e+00
Gypsum               Element not present.    0.000e+00           0   0.000e+00
Halite           -4.73    -3.23      1.50    0.000e+00           0   0.000e+00
Hexahydrite          Element not present.    0.000e+00           0   0.000e+00
Hydrohalite      -4.49    -3.23      1.26    0.000e+00           0   0.000e+00
Ice(s)            0.00    -0.00     -0.00    0.000e+00   2.183e+01   2.183e+01
Kainite              Element not present.    0.000e+00           0   0.000e+00
Kieserite            Element not present.    0.000e+00           0   0.000e+00
Labile_Salt          Element not present.    0.000e+00           0   0.000e+00
Langbeinite          Element not present.    0.000e+00           0   0.000e+00
Leonite              Element not present.    0.000e+00           0   0.000e+00
Meridianiite         Element not present.    0.000e+00           0   0.000e+00
MgCl2:12H2O          Element not present.    0.000e+00           0   0.000e+00
MgCl2:8H2O           Element not present.    0.000e+00           0   0.000e+00
Mirabilite           Element not present.    0.000e+00           0   0.000e+00
Na2SO4:7H2O          Element not present.    0.000e+00           0   0.000e+00
Pentahydrite         Element not present.    0.000e+00           0   0.000e+00
Picromerite          Element not present.    0.000e+00           0   0.000e+00
Polyhalite           Element not present.    0.000e+00           0   0.000e+00
Starkeyite           Element not present.    0.000e+00           0   0.000e+00
Sylvite              Element not present.    0.000e+00           0   0.000e+00
Syngenite            Element not present.    0.000e+00           0   0.000e+00
Tachyhydrite         Element not present.    0.000e+00           0   0.000e+00
Thenardite           Element not present.    0.000e+00           0   0.000e+00

-----------------------------Solution composition------------------------------

	Elements           Molality       Moles

	Cl                2.819e-02   1.710e-02
	Na                2.819e-02   1.710e-02

----------------------------Description of solution----------------------------

                                       pH  =   7.000      Charge balance
                                       pe  =   4.000      Adjusted to redox equilibrium
                        Activity of water  =   0.999
                 Ionic strength (mol/kgw)  =   2.819e-02
                       Mass of water (kg)  =   6.067e-01
                 Total alkalinity (eq/kg)  =  -1.122e-10
                         Temperature (°C)  =  -0.10
                  Electrical balance (eq)  =   6.804e-11
 Percent error, 100*(Cat-|An|)/(Cat+|An|)  =   0.00
                               Iterations  =   6 (1410 overall)
                         Gamma iterations  =   1
                      Osmotic coefficient  =   0.95397
                                  Total H  = 6.735042e+01
                                  Total O  = 3.367521e+01

----------------------------Distribution of species----------------------------

                                                    Unscaled  Unscaled
                                Unscaled       Log       Log       Log    mole V
   Species          Molality    Activity  Molality  Activity     Gamma    cm³/mol

   H+              1.184e-07   1.000e-07    -6.927    -7.000    -0.073      0.00
   OH-             1.183e-07   9.990e-08    -6.927    -7.000    -0.073     (0)  
   H2O             5.551e+01   9.990e-01     1.744    -0.000     0.000     18.02
Cl            2.819e-02
   Cl-             2.819e-02   2.416e-02    -1.550    -1.617    -0.067     (0)  
Na            2.819e-02
   Na+             2.819e-02   2.416e-02    -1.550    -1.617    -0.067     (0)  

------------------------------Saturation indices-------------------------------

  Phase               SI** log IAP   log K(273 K,   1 atm)

  Halite           -4.73     -3.23    1.50  NaCl
  Hydrohalite      -4.49     -3.23    1.26  NaCl:2H2O
  Ice(s)            0.00     -0.00   -0.00  H2O

**For a gas, SI = log10(fugacity). Fugacity = pressure * phi / 1 atm.
  For ideal gases, phi = 1.

Reaction step 3.

Using solution 1.	
Using pure phase assemblage 1.	
Using temperature 1.	

-------------------------------Phase assemblage--------------------------------

                                                      Moles in assemblage
Phase               SI  log IAP  log K(T, P)   Initial       Final       Delta

Anhydrite            Element not present.    0.000e+00           0   0.000e+00
Antarcticite         Element not present.    0.000e+00           0   0.000e+00
Arcanite             Element not present.    0.000e+00           0   0.000e+00
Bassanite            Element not present.    0.000e+00           0   0.000e+00
Bischofite           Element not present.    0.000e+00           0   0.000e+00
Bloedite             Element not present.    0.000e+00           0   0.000e+00
Carnallite           Element not present.    0.000e+00           0   0.000e+00
Epsomite             Element not present.    0.000e+00           0   0.000e+00
Glaserite            Element not present.    0.000e+00           0   0.000e+00
Glauberite           Element not present.    0.000e+00           0   0.000e+00
Gypsum               Element not present.    0.000e+00           0   0.000e+00
Halite           -4.16    -2.66      1.50    0.000e+00           0   0.000e+00
Hexahydrite          Element not present.    0.000e+00           0   0.000e+00
Hydrohalite      -3.92    -2.66      1.25    0.000e+00           0   0.000e+00
Ice(s)            0.00    -0.00     -0.00    0.000e+00   3.888e+01   3.888e+01
Kainite              Element not present.    0.000e+00           0   0.000e+00
Kieserite            Element not present.    0.000e+00           0   0.000e+00
Labile_Salt          Element not present.    0.000e+00           0   0.000e+00
Langbeinite          Element not present.    0.000e+00           0   0.000e+00
Leonite              Element not present.    0.000e+00           0   0.000e+00
Meridianiite         Element not present.    0.000e+00           0   0.000e+00
MgCl2:12H2O          Element not present.    0.000e+00           0   0.000e+00
MgCl2:8H2O           Element not present.    0.000e+00           0   0.000e+00
Mirabilite           Element not present.    0.000e+00           0   0.000e+00
Na2SO4:7H2O          Element not present.    0.000e+00           0   0.000e+00
Pentahydrite         Element not present.    0.000e+00           0   0.000e+00
Picromerite          Element not present.    0.000e+00           0   0.000e+00
Polyhalite           Element not present.    0.000e+00           0   0.000e+00
Starkeyite           Element not present.    0.000e+00           0   0.000e+00
Sylvite              Element not present.    0.000e+00           0   0.000e+00
Syngenite            Element not present.    0.000e+00           0   0.000e+00
Tachyhydrite         Element not present.    0.000e+00           0   0.000e+00
Thenardite           Element not present.    0.000e+00           0   0.000e+00

-----------------------------Solution composition------------------------------

	Elements           Molality       Moles

	Cl                5.710e-02   1.710e-02
	Na                5.710e-02   1.710e-02

----------------------------Description of solution----------------------------

                                       pH  =   7.000      Charge balance
                                       pe  =   4.000      Adjusted to redox equilibrium
                        Activity of water  =   0.998
                 Ionic strength (mol/kgw)  =   5.710e-02
                       Mass of water (kg)  =   2.995e-01
                 Total alkalinity (eq/kg)  =  -2.272e-10
                         Temperature (°C)  =  -0.20
                  Electrical balance (eq)  =   6.804e-11
 Percent error, 100*(Cat-|An|)/(Cat+|An|)  =   0.00
                               Iterations  =  10 (1414 overall)
                         Gamma iterations  =   1
                      Osmotic coefficient  =   0.94198
                                  Total H  = 3.324878e+01
                                  Total O  = 1.662439e+01

----------------------------Distribution of species----------------------------

                                                    Unscaled  Unscaled
                                Unscaled       Log       Log       Log    mole V
   Species          Molality    Activity  Molality  Activity     Gamma    cm³/mol

   H+              1.259e-07   9.999e-08    -6.900    -7.000    -0.100      0.00
   OH-             1.256e-07   9.981e-08    -6.901    -7.001    -0.100     (0)  
   H2O             5.551e+01   9.981e-01     1.744    -0.001     0.000     18.02
Cl            5.710e-02
   Cl-             5.710e-02   4.662e-02    -1.243    -1.331    -0.088     (0)  
Na            5.710e-02
   Na+             5.710e-02   4.662e-02    -1.243    -1.331    -0.088     (0)  

------------------------------Saturation indices-------------------------------

  Phase               SI** log IAP   log K(272 K,   1 atm)

  Halite           -4.16     -2.66    1.50  NaCl
  Hydrohalite      -3.92     -2.66    1.25  NaCl:2H2O
  Ice(s)            0.00     -0.00   -0.00  H2O

**For a gas, SI = log10(fugacity). Fugacity = pressure * phi / 1 atm.
  For ideal gases, phi = 1.

Reaction step 4.

Using solution 1.	
Using pure phase assemblage 1.	
Using temperature 1.	

-------------------------------Phase assemblage--------------------------------

                                                      Moles in assemblage
Phase               SI  log IAP  log K(T, P)   Initial       Final       Delta

Anhydrite            Element not present.    0.000e+00           0   0.000e+00
Antarcticite         Element not present.    0.000e+00           0   0.000e+00
Arcanite             Element not present.    0.000e+00           0   0.000e+00
Bassanite            Element not present.    0.000e+00           0   0.000e+00
Bischofite           Element not present.    0.000e+00           0   0.000e+00
Bloedite             Element not present.    0.000e+00           0   0.000e+00
Carnallite           Element not present.    0.000e+00           0   0.000e+00
Epsomite             Element not present.    0.000e+00           0   0.000e+00
Glaserite            Element not present.    0.000e+00           0   0.000e+00
Glauberite           Element not present.    0.000e+00           0   0.000e+00
Gypsum               Element not present.    0.000e+00           0   0.000e+00
Halite           -3.83    -2.33      1.50    0.000e+00           0   0.000e+00
Hexahydrite          Element not present.    0.000e+00           0   0.000e+00
Hydrohalite      -3.59    -2.33      1.25    0.000e+00           0   0.000e+00
Ice(s)            0.00    -0.00     -0.00    0.000e+00   4.451e+01   4.451e+01
Kainite              Element not present.    0.000e+00           0   0.000e+00
Kieserite            Element not present.    0.000e+00           0   0.000e+00
Labile_Salt          Element not present.    0.000e+00           0   0.000e+00
Langbeinite          Element not present.    0.000e+00           0   0.000e+00
Leonite              Element not present.    0.000e+00           0   0.000e+00
Meridianiite         Element not present.    0.000e+00           0   0.000e+00
MgCl2:12H2O          Element not present.    0.000e+00           0   0.000e+00
MgCl2:8H2O           Element not present.    0.000e+00           0   0.000e+00
Mirabilite           Element not present.    0.000e+00           0   0.000e+00
Na2SO4:7H2O          Element not present.    0.000e+00           0   0.000e+00
Pentahydrite         Element not present.    0.000e+00           0   0.000e+00
Picromerite          Element not present.    0.000e+00           0   0.000e+00
Polyhalite           Element not present.    0.000e+00           0   0.000e+00
Starkeyite           Element not present.    0.000e+00           0   0.000e+00
Sylvite              Element not present.    0.000e+00           0   0.000e+00
Syngenite            Element not present.    0.000e+00           0   0.000e+00
Tachyhydrite         Element not present.    0.000e+00           0   0.000e+00
Thenardite           Element not present.    0.000e+00           0   0.000e+00

-----------------------------Solution composition------------------------------

	Elements           Molality       Moles

	Cl                8.632e-02   1.710e-02
	Na                8.632e-02   1.710e-02

----------------------------Description of solution----------------------------

                                       pH  =   7.000      Charge balance
                                       pe  =   4.000      Adjusted to redox equilibrium
                        Activity of water  =   0.997
                 Ionic strength (mol/kgw)  =   8.632e-02
                       Mass of water (kg)  =   1.981e-01
                 Total alkalinity (eq/kg)  =  -3.435e-10
                         Temperature (°C)  =  -0.30
                  Electrical balance (eq)  =   6.804e-11
 Percent error, 100*(Cat-|An|)/(Cat+|An|)  =   0.00
                               Iterations  =  12 (1416 overall)
                         Gamma iterations  =   1
                      Osmotic coefficient  =   0.93472
                                  Total H  = 2.199360e+01
                                  Total O  = 1.099680e+01

----------------------------Distribution of species----------------------------

                                                    Unscaled  Unscaled
                                Unscaled       Log       Log       Log    mole V
   Species          Molality    Activity  Molality  Activity     Gamma    cm³/mol

   H+              1.316e-07   9.999e-08    -6.881    -7.000    -0.119      0.00
   OH-             1.312e-07   9.972e-08    -6.882    -7.001    -0.119     (0)  
   H2O             5.551e+01   9.971e-01     1.744    -0.001     0.000     18.02
Cl            8.632e-02
   Cl-             8.632e-02   6.821e-02    -1.064    -1.166    -0.102     (0)  
Na            8.632e-02
   Na+             8.632e-02   6.821e-02    -1.064    -1.166    -0.102     (0)  

------------------------------Saturation indices-------------------------------

  Phase               SI** log IAP   log K(272 K,   1 atm)

  Halite           -3.83     -2.33    1.50  NaCl
  Hydrohalite      -3.59     -2.33    1.25  NaCl:2H2O
  Ice(s)            0.00     -0.00   -0.00  H2O

**For a gas, SI = log10(fugacity). Fugacity = pressure * phi / 1 atm.
  For ideal gases, phi = 1.

Reaction step 5.

Using solution 1.	
Using pure phase assemblage 1.	
Using temperature 1.	

-------------------------------Phase assemblage--------------------------------

                                                      Moles in assemblage
Phase               SI  log IAP  log K(T, P)   Initial       Final       Delta

Anhydrite            Element not present.    0.000e+00           0   0.000e+00
Antarcticite         Element not present.    0.000e+00           0   0.000e+00
Arcanite             Element not present.    0.000e+00           0   0.000e+00
Bassanite            Element not present.    0.000e+00           0   0.000e+00
Bischofite           Element not present.    0.000e+00           0   0.000e+00
Bloedite             Element not present.    0.000e+00           0   0.000e+00
Carnallite           Element not present.    0.000e+00           0   0.000e+00
Epsomite             Element not present.    0.000e+00           0   0.000e+00
Glaserite            Element not present.    0.000e+00           0   0.000e+00
Glauberite           Element not present.    0.000e+00           0   0.000e+00
Gypsum               Element not present.    0.000e+00           0   0.000e+00
Halite           -3.60    -2.10      1.50    0.000e+00           0   0.000e+00
Hexahydrite          Element not present.    0.000e+00           0   0.000e+00
Hydrohalite      -3.35    -2.10      1.25    0.000e+00           0   0.000e+00
Ice(s)            0.00    -0.00     -0.00    0.000e+00   4.731e+01   4.731e+01
Kainite              Element not present.    0.000e+00           0   0.000e+00
Kieserite            Element not present.    0.000e+00           0   0.000e+00
Labile_Salt          Element not present.    0.000e+00           0   0.000e+00
Langbeinite          Element not present.    0.000e+00           0   0.000e+00
Leonite              Element not present.    0.000e+00           0   0.000e+00
Meridianiite         Element not present.    0.000e+00           0   0.000e+00
MgCl2:12H2O          Element not present.    0.000e+00           0   0.000e+00
MgCl2:8H2O           Element not present.    0.000e+00           0   0.000e+00
Mirabilite           Element not present.    0.000e+00           0   0.000e+00
Na2SO4:7H2O          Element not present.    0.000e+00           0   0.000e+00
Pentahydrite         Element not present.    0.000e+00           0   0.000e+00
Picromerite          Element not present.    0.000e+00           0   0.000e+00
Polyhalite           Element not present.    0.000e+00           0   0.000e+00
Starkeyite           Element not present.    0.000e+00           0   0.000e+00
Sylvite              Element not present.    0.000e+00           0   0.000e+00
Syngenite            Element not present.    0.000e+00           0   0.000e+00
Tachyhydrite         Element not present.    0.000e+00           0   0.000e+00
Thenardite           Element not present.    0.000e+00           0   0.000e+00

-----------------------------Solution composition------------------------------

	Elements           Molality       Moles

	Cl                1.157e-01   1.710e-02
	Na                1.157e-01   1.710e-02

----------------------------Description of solution----------------------------

                                       pH  =   7.000      Charge balance
                                       pe  =   4.000      Adjusted to redox equilibrium
                        Activity of water  =   0.996
                 Ionic strength (mol/kgw)  =   1.157e-01
                       Mass of water (kg)  =   1.478e-01
                 Total alkalinity (eq/kg)  =  -4.605e-10
                         Temperature (°C)  =  -0.40
                  Electrical balance (eq)  =   6.804e-11
 Percent error, 100*(Cat-|An|)/(Cat+|An|)  =   0.00
                               Iterations  =  14 (1418 overall)
                         Gamma iterations  =   1
                      Osmotic coefficient  =   0.92968
                                  Total H  = 1.640499e+01
                                  Total O  = 8.202494e+00

----------------------------Distribution of species----------------------------

                                                    Unscaled  Unscaled
                                Unscaled       Log       Log       Log    mole V
   Species          Molality    Activity  Molality  Activity     Gamma    cm³/mol

   H+              1.363e-07   9.998e-08    -6.865    -7.000    -0.135      0.00
   OH-             1.359e-07   9.964e-08    -6.867    -7.002    -0.135     (0)  
   H2O             5.551e+01   9.961e-01     1.744    -0.002     0.000     18.02
Cl            1.157e-01
   Cl-             1.157e-01   8.920e-02    -0.937    -1.050    -0.113     (0)  
Na            1.157e-01
   Na+             1.157e-01   8.920e-02    -0.937    -1.050    -0.113     (0)  

------------------------------Saturation indices-------------------------------

  Phase               SI** log IAP   log K(272 K,   1 atm)

  Halite           -3.60     -2.10    1.50  NaCl
  Hydrohalite      -3.35     -2.10    1.25  NaCl:2H2O
  Ice(s)            0.00     -0.00   -0.00  H2O

**For a gas, SI = log10(fugacity). Fugacity = pressure * phi / 1 atm.
  For ideal gases, phi = 1.

Reaction step 6.

Using solution 1.	
Using pure phase assemblage 1.	
Using temperature 1.	

-------------------------------Phase assemblage--------------------------------

                                                      Moles in assemblage
Phase               SI  log IAP  log K(T, P)   Initial       Final       Delta

Anhydrite            Element not present.    0.000e+00           0   0.000e+00
Antarcticite         Element not present.    0.000e+00           0   0.000e+00
Arcanite             Element not present.    0.000e+00           0   0.000e+00
Bassanite            Element not present.    0.000e+00           0   0.000e+00
Bischofite           Element not present.    0.000e+00           0   0.000e+00
Bloedite             Element not present.    0.000e+00           0   0.000e+00
Carnallite           Element not present.    0.000e+00           0   0.000e+00
Epsomite             Element not present.    0.000e+00           0   0.000e+00
Glaserite            Element not present.    0.000e+00           0   0.000e+00
Glauberite           Element not present.    0.000e+00           0   0.000e+00
Gypsum               Element not present.    0.000e+00           0   0.000e+00
Halite           -3.42    -1.92      1.50    0.000e+00           0   0.000e+00
Hexahydrite          Element not present.    0.000e+00           0   0.000e+00
Hydrohalite      -3.17    -1.92      1.25    0.000e+00           0   0.000e+00
Ice(s)            0.00    -0.00     -0.00    0.000e+00   4.897e+01   4.897e+01
Kainite              Element not present.    0.000e+00           0   0.000e+00
Kieserite            Element not present.    0.000e+00           0   0.000e+00
Labile_Salt          Element not present.    0.000e+00           0   0.000e+00
Langbeinite          Element not present.    0.000e+00           0   0.000e+00
Leonite              Element not present.    0.000e+00           0   0.000e+00
Meridianiite         Element not present.    0.000e+00           0   0.000e+00
MgCl2:12H2O          Element not present.    0.000e+00           0   0.000e+00
MgCl2:8H2O           Element not present.    0.000e+00           0   0.000e+00
Mirabilite           Element not present.    0.000e+00           0   0.000e+00
Na2SO4:7H2O          Element not present.    0.000e+00           0   0.000e+00
Pentahydrite         Element not present.    0.000e+00           0   0.000e+00
Picromerite          Element not present.    0.000e+00           0   0.000e+00
Polyhalite           Element not present.    0.000e+00           0   0.000e+00
Starkeyite           Element not present.    0.000e+00           0   0.000e+00
Sylvite              Element not present.    0.000e+00           0   0.000e+00
Syngenite            Element not present.    0.000e+00           0   0.000e+00
Tachyhydrite         Element not present.    0.000e+00           0   0.000e+00
Thenardite           Element not present.    0.000e+00           0   0.000e+00

-----------------------------Solution composition------------------------------

	Elements           Molality       Moles

	Cl                1.453e-01   1.710e-02
	Na                1.453e-01   1.710e-02

----------------------------Description of solution----------------------------

                                       pH  =   7.000      Charge balance
                                       pe  =   4.000      Adjusted to redox equilibrium
                        Activity of water  =   0.995
                 Ionic strength (mol/kgw)  =   1.453e-01
                       Mass of water (kg)  =   1.177e-01
                 Total alkalinity (eq/kg)  =  -5.780e-10
                         Temperature (°C)  =  -0.50
                  Electrical balance (eq)  =   6.804e-11
 Percent error, 100*(Cat-|An|)/(Cat+|An|)  =   0.00
                               Iterations  =  15 (1419 overall)
                         Gamma iterations  =   1
                      Osmotic coefficient  =   0.92591
                                  Total H  = 1.306995e+01
                                  Total O  = 6.534974e+00

----------------------------Distribution of species----------------------------

                                                    Unscaled  Unscaled
                                Unscaled       Log       Log       Log    mole V
   Species          Molality    Activity  Molality  Activity     Gamma    cm³/mol

   H+              1.405e-07   9.996e-08    -6.852    -7.000    -0.148      0.00
   OH-             1.399e-07   9.955e-08    -6.854    -7.002    -0.148     (0)  
   H2O             5.551e+01   9.952e-01     1.744    -0.002     0.000     18.02
Cl            1.453e-01
   Cl-             1.453e-01   1.097e-01    -0.838    -0.960    -0.122     (0)  
Na            1.453e-01
   Na+             1.453e-01   1.097e-01    -0.838    -0.960    -0.122     (0)  

------------------------------Saturation indices-------------------------------

  Phase               SI** log IAP   log K(272 K,   1 atm)

  Halite           -3.42     -1.92    1.50  NaCl
  Hydrohalite      -3.17     -1.92    1.25  NaCl:2H2O
  Ice(s)            0.00     -0.00   -0.00  H2O

**For a gas, SI = log10(fugacity). Fugacity = pressure * phi / 1 atm.
  For ideal gases, phi = 1.

Reaction step 7.

Using solution 1.	
Using pure phase assemblage 1.	
Using temperature 1.	

-------------------------------Phase assemblage--------------------------------

                                                      Moles in assemblage
Phase               SI  log IAP  log K(T, P)   Initial       Final       Delta

Anhydrite            Element not present.    0.000e+00           0   0.000e+00
Antarcticite         Element not present.    0.000e+00           0   0.000e+00
Arcanite             Element not present.    0.000e+00           0   0.000e+00
Bassanite            Element not present.    0.000e+00           0   0.000e+00
Bischofite           Element not present.    0.000e+00           0   0.000e+00
Bloedite             Element not present.    0.000e+00           0   0.000e+00
Carnallite           Element not present.    0.000e+00           0   0.000e+00
Epsomite             Element not present.    0.000e+00           0   0.000e+00
Glaserite            Element not present.    0.000e+00           0   0.000e+00
Glauberite           Element not present.    0.000e+00           0   0.000e+00
Gypsum               Element not present.    0.000e+00           0   0.000e+00
Halite           -3.27    -1.77      1.50    0.000e+00           0   0.000e+00
Hexahydrite          Element not present.    0.000e+00           0   0.000e+00
Hydrohalite      -3.03    -1.78      1.25    0.000e+00           0   0.000e+00
Ice(s)            0.00    -0.00     -0.00    0.000e+00   5.008e+01   5.008e+01
Kainite              Element not present.    0.000e+00           0   0.000e+00
Kieserite            Element not present.    0.000e+00           0   0.000e+00
Labile_Salt          Element not present.    0.000e+00           0   0.000e+00
Langbeinite          Element not present.    0.000e+00           0   0.000e+00
Leonite              Element not present.    0.000e+00           0   0.000e+00
Meridianiite         Element not present.    0.000e+00           0   0.000e+00
MgCl2:12H2O          Element not present.    0.000e+00           0   0.000e+00
MgCl2:8H2O           Element not present.    0.000e+00           0   0.000e+00
Mirabilite           Element not present.    0.000e+00           0   0.000e+00
Na2SO4:7H2O          Element not present.    0.000e+00           0   0.000e+00
Pentahydrite         Element not present.    0.000e+00           0   0.000e+00
Picromerite          Element not present.    0.000e+00           0   0.000e+00
Polyhalite           Element not present.    0.000e+00           0   0.000e+00
Starkeyite           Element not present.    0.000e+00           0   0.000e+00
Sylvite              Element not present.    0.000e+00           0   0.000e+00
Syngenite            Element not present.    0.000e+00           0   0.000e+00
Tachyhydrite         Element not present.    0.000e+00           0   0.000e+00
Thenardite           Element not present.    0.000e+00           0   0.000e+00

-----------------------------Solution composition------------------------------

	Elements           Molality       Moles

	Cl                1.749e-01   1.710e-02
	Na                1.749e-01   1.710e-02

----------------------------Description of solution----------------------------

                                       pH  =   7.000      Charge balance
                                       pe  =   4.000      Adjusted to redox equilibrium
                        Activity of water  =   0.994
                 Ionic strength (mol/kgw)  =   1.749e-01
                       Mass of water (kg)  =   9.779e-02
                 Total alkalinity (eq/kg)  =  -6.958e-10
                         Temperature (°C)  =  -0.60
                  Electrical balance (eq)  =   6.804e-11
 Percent error, 100*(Cat-|An|)/(Cat+|An|)  =   0.00
                               Iterations  =  16 (1420 overall)
                         Gamma iterations  =   1
                      Osmotic coefficient  =   0.92298
                                  Total H  = 1.085646e+01
                                  Total O  = 5.428228e+00

----------------------------Distribution of species----------------------------

                                                    Unscaled  Unscaled
                                Unscaled       Log       Log       Log    mole V
   Species          Molality    Activity  Molality  Activity     Gamma    cm³/mol

   H+              1.443e-07   9.995e-08    -6.841    -7.000    -0.159      0.00
   OH-             1.436e-07   9.947e-08    -6.843    -7.002    -0.159     (0)  
   H2O             5.551e+01   9.942e-01     1.744    -0.003     0.000     18.02
Cl            1.749e-01
   Cl-             1.749e-01   1.299e-01    -0.757    -0.886    -0.129     (0)  
Na            1.749e-01
   Na+             1.749e-01   1.299e-01    -0.757    -0.886    -0.129     (0)  

------------------------------Saturation indices-------------------------------

  Phase               SI** log IAP   log K(272 K,   1 atm)

  Halite           -3.27     -1.77    1.50  NaCl
  Hydrohalite      -3.03     -1.78    1.25  NaCl:2H2O
  Ice(s)            0.00     -0.00   -0.00  H2O

**For a gas, SI = log10(fugacity). Fugacity = pressure * phi / 1 atm.
  For ideal gases, phi = 1.

Reaction step 8.

Using solution 1.	
Using pure phase assemblage 1.	
Using temperature 1.	

-------------------------------Phase assemblage--------------------------------

                                                      Moles in assemblage
Phase               SI  log IAP  log K(T, P)   Initial       Final       Delta

Anhydrite            Element not present.    0.000e+00           0   0.000e+00
Antarcticite         Element not present.    0.000e+00           0   0.000e+00
Arcanite             Element not present.    0.000e+00           0   0.000e+00
Bassanite            Element not present.    0.000e+00           0   0.000e+00
Bischofite           Element not present.    0.000e+00           0   0.000e+00
Bloedite             Element not present.    0.000e+00           0   0.000e+00
Carnallite           Element not present.    0.000e+00           0   0.000e+00
Epsomite             Element not present.    0.000e+00           0   0.000e+00
Glaserite            Element not present.    0.000e+00           0   0.000e+00
Glauberite           Element not present.    0.000e+00           0   0.000e+00
Gypsum               Element not present.    0.000e+00           0   0.000e+00
Halite           -3.15    -1.65      1.50    0.000e+00           0   0.000e+00
Hexahydrite          Element not present.    0.000e+00           0   0.000e+00
Hydrohalite      -2.90    -1.66      1.25    0.000e+00           0   0.000e+00
Ice(s)            0.00    -0.00     -0.00    0.000e+00   5.087e+01   5.087e+01
Kainite              Element not present.    0.000e+00           0   0.000e+00
Kieserite            Element not present.    0.000e+00           0   0.000e+00
Labile_Salt          Element not present.    0.000e+00           0   0.000e+00
Langbeinite          Element not present.    0.000e+00           0   0.000e+00
Leonite              Element not present.    0.000e+00           0   0.000e+00
Meridianiite         Element not present.    0.000e+00           0   0.000e+00
MgCl2:12H2O          Element not present.    0.000e+00           0   0.000e+00
MgCl2:8H2O           Element not present.    0.000e+00           0   0.000e+00
Mirabilite           Element not present.    0.000e+00           0   0.000e+00
Na2SO4:7H2O          Element not present.    0.000e+00           0   0.000e+00
Pentahydrite         Element not present.    0.000e+00           0   0.000e+00
Picromerite          Element not present.    0.000e+00           0   0.000e+00
Polyhalite           Element not present.    0.000e+00           0   0.000e+00
Starkeyite           Element not present.    0.000e+00           0   0.000e+00
Sylvite              Element not present.    0.000e+00           0   0.000e+00
Syngenite            Element not present.    0.000e+00           0   0.000e+00
Tachyhydrite         Element not present.    0.000e+00           0   0.000e+00
Thenardite           Element not present.    0.000e+00           0   0.000e+00

-----------------------------Solution composition------------------------------

	Elements           Molality       Moles

	Cl                2.045e-01   1.710e-02
	Na                2.045e-01   1.710e-02

----------------------------Description of solution----------------------------

                                       pH  =   7.000      Charge balance
                                       pe  =   4.000      Adjusted to redox equilibrium
                        Activity of water  =   0.993
                 Ionic strength (mol/kgw)  =   2.045e-01
                       Mass of water (kg)  =   8.360e-02
                 Total alkalinity (eq/kg)  =  -8.139e-10
                         Temperature (°C)  =  -0.70
                  Electrical balance (eq)  =   6.804e-11
 Percent error, 100*(Cat-|An|)/(Cat+|An|)  =   0.00
                               Iterations  =  17 (1421 overall)
                         Gamma iterations  =   1
                      Osmotic coefficient  =   0.92064
                                  Total H  = 9.281335e+00
                                  Total O  = 4.640667e+00

----------------------------Distribution of species----------------------------

                                                    Unscaled  Unscaled
                                Unscaled       Log       Log       Log    mole V
   Species          Molality    Activity  Molality  Activity     Gamma    cm³/mol

   H+              1.477e-07   9.994e-08    -6.831    -7.000    -0.170      0.00
   OH-             1.469e-07   9.939e-08    -6.833    -7.003    -0.170     (0)  
   H2O             5.551e+01   9.932e-01     1.744    -0.003     0.000     18.02
Cl            2.045e-01
   Cl-             2.045e-01   1.497e-01    -0.689    -0.825    -0.136     (0)  
Na            2.045e-01
   Na+             2.045e-01   1.497e-01    -0.689    -0.825    -0.136     (0)  

------------------------------Saturation indices-------------------------------

  Phase               SI** log IAP   log K(272 K,   1 atm)

  Halite           -3.15     -1.65    1.50  NaCl
  Hydrohalite      -2.90     -1.66    1.25  NaCl:2H2O
  Ice(s)            0.00     -0.00   -0.00  H2O

**For a gas, SI = log10(fugacity). Fugacity = pressure * phi / 1 atm.
  For ideal gases, phi = 1.

Reaction step 9.

Using solution 1.	
Using pure phase assemblage 1.	
Using temperature 1.	

-------------------------------Phase assemblage--------------------------------

                                                      Moles in assemblage
Phase               SI  log IAP  log K(T, P)   Initial       Final       Delta

Anhydrite            Element not present.    0.000e+00           0   0.000e+00
Antarcticite         Element not present.    0.000e+00           0   0.000e+00
Arcanite             Element not present.    0.000e+00           0   0.000e+00
Bassanite            Element not present.    0.000e+00           0   0.000e+00
Bischofite           Element not present.    0.000e+00           0   0.000e+00
Bloedite             Element not present.    0.000e+00           0   0.000e+00
Carnallite           Element not present.    0.000e+00           0   0.000e+00
Epsomite             Element not present.    0.000e+00           0   0.000e+00
Glaserite            Element not present.    0.000e+00           0   0.000e+00
Glauberite           Element not present.    0.000e+00           0   0.000e+00
Gypsum               Element not present.    0.000e+00           0   0.000e+00
Halite           -3.04    -1.54      1.50    0.000e+00           0   0.000e+00
Hexahydrite          Element not present.    0.000e+00           0   0.000e+00
Hydrohalite      -2.80    -1.55      1.25    0.000e+00           0   0.000e+00
Ice(s)            0.00    -0.00     -0.00    0.000e+00   5.146e+01   5.146e+01
Kainite              Element not present.    0.000e+00           0   0.000e+00
Kieserite            Element not present.    0.000e+00           0   0.000e+00
Labile_Salt          Element not present.    0.000e+00           0   0.000e+00
Langbeinite          Element not present.    0.000e+00           0   0.000e+00
Leonite              Element not present.    0.000e+00           0   0.000e+00
Meridianiite         Element not present.    0.000e+00           0   0.000e+00
MgCl2:12H2O          Element not present.    0.000e+00           0   0.000e+00
MgCl2:8H2O           Element not present.    0.000e+00           0   0.000e+00
Mirabilite           Element not present.    0.000e+00           0   0.000e+00
Na2SO4:7H2O          Element not present.    0.000e+00           0   0.000e+00
Pentahydrite         Element not present.    0.000e+00           0   0.000e+00
Picromerite          Element not present.    0.000e+00           0   0.000e+00
Polyhalite           Element not present.    0.000e+00           0   0.000e+00
Starkeyite           Element not present.    0.000e+00           0   0.000e+00
Sylvite              Element not present.    0.000e+00           0   0.000e+00
Syngenite            Element not present.    0.000e+00           0   0.000e+00
Tachyhydrite         Element not present.    0.000e+00           0   0.000e+00
Thenardite           Element not present.    0.000e+00           0   0.000e+00

-----------------------------Solution composition------------------------------

	Elements           Molality       Moles

	Cl                2.343e-01   1.710e-02
	Na                2.343e-01   1.710e-02

----------------------------Description of solution----------------------------

                                       pH  =   7.000      Charge balance
                                       pe  =   4.000      Adjusted to redox equilibrium
                        Activity of water  =   0.992
                 Ionic strength (mol/kgw)  =   2.343e-01
                       Mass of water (kg)  =   7.300e-02
                 Total alkalinity (eq/kg)  =  -9.322e-10
                         Temperature (°C)  =  -0.80
                  Electrical balance (eq)  =   6.804e-11
 Percent error, 100*(Cat-|An|)/(Cat+|An|)  =   0.00
                               Iterations  =  18 (1422 overall)
                         Gamma iterations  =   1
                      Osmotic coefficient  =   0.91873
                                  Total H  = 8.103843e+00
                                  Total O  = 4.051922e+00

----------------------------Distribution of species----------------------------

                                                    Unscaled  Unscaled
                                Unscaled       Log       Log       Log    mole V
   Species          Molality    Activity  Molality  Activity     Gamma    cm³/mol

   H+              1.509e-07   9.992e-08    -6.821    -7.000    -0.179      0.00
   OH-             1.500e-07   9.930e-08    -6.824    -7.003    -0.179     (0)  
   H2O             5.551e+01   9.923e-01     1.744    -0.003     0.000     18.02
Cl            2.343e-01
   Cl-             2.343e-01   1.693e-01    -0.630    -0.771    -0.141     (0)  
Na            2.343e-01
   Na+             2.343e-01   1.693e-01    -0.630    -0.771    -0.141     (0)  

------------------------------Saturation indices-------------------------------

  Phase               SI** log IAP   log K(272 K,   1 atm)

  Halite           -3.04     -1.54    1.50  NaCl
  Hydrohalite      -2.80     -1.55    1.25  NaCl:2H2O
  Ice(s)            0.00     -0.00   -0.00  H2O

**For a gas, SI = log10(fugacity). Fugacity = pressure * phi / 1 atm.
  For ideal gases, phi = 1.

Reaction step 10.

Using solution 1.	
Using pure phase assemblage 1.	
Using temperature 1.	

-------------------------------Phase assemblage--------------------------------

                                                      Moles in assemblage
Phase               SI  log IAP  log K(T, P)   Initial       Final       Delta

Anhydrite            Element not present.    0.000e+00           0   0.000e+00
Antarcticite         Element not present.    0.000e+00           0   0.000e+00
Arcanite             Element not present.    0.000e+00           0   0.000e+00
Bassanite            Element not present.    0.000e+00           0   0.000e+00
Bischofite           Element not present.    0.000e+00           0   0.000e+00
Bloedite             Element not present.    0.000e+00           0   0.000e+00
Carnallite           Element not present.    0.000e+00           0   0.000e+00
Epsomite             Element not present.    0.000e+00           0   0.000e+00
Glaserite            Element not present.    0.000e+00           0   0.000e+00
Glauberite           Element not present.    0.000e+00           0   0.000e+00
Gypsum               Element not present.    0.000e+00           0   0.000e+00
Halite           -2.94    -1.45      1.50    0.000e+00           0   0.000e+00
Hexahydrite          Element not present.    0.000e+00           0   0.000e+00
Hydrohalite      -2.70    -1.46      1.24    0.000e+00           0   0.000e+00
Ice(s)            0.00    -0.00     -0.00    0.000e+00   5.191e+01   5.191e+01
Kainite              Element not present.    0.000e+00           0   0.000e+00
Kieserite            Element not present.    0.000e+00           0   0.000e+00
Labile_Salt          Element not present.    0.000e+00           0   0.000e+00
Langbeinite          Element not present.    0.000e+00           0   0.000e+00
Leonite              Element not present.    0.000e+00           0   0.000e+00
Meridianiite         Element not present.    0.000e+00           0   0.000e+00
MgCl2:12H2O          Element not present.    0.000e+00           0   0.000e+00
MgCl2:8H2O           Element not present.    0.000e+00           0   0.000e+00
Mirabilite           Element not present.    0.000e+00           0   0.000e+00
Na2SO4:7H2O          Element not present.    0.000e+00           0   0.000e+00
Pentahydrite         Element not present.    0.000e+00           0   0.000e+00
Picromerite          Element not present.    0.000e+00           0   0.000e+00
Polyhalite           Element not present.    0.000e+00           0   0.000e+00
Starkeyite           Element not present.    0.000e+00           0   0.000e+00
Sylvite              Element not present.    0.000e+00           0   0.000e+00
Syngenite            Element not present.    0.000e+00           0   0.000e+00
Tachyhydrite         Element not present.    0.000e+00           0   0.000e+00
Thenardite           Element not present.    0.000e+00           0   0.000e+00

-----------------------------Solution composition------------------------------

	Elements           Molality       Moles

	Cl                2.640e-01   1.710e-02
	Na                2.640e-01   1.710e-02

----------------------------Description of solution----------------------------

                                       pH  =   7.000      Charge balance
                                       pe  =   4.000      Adjusted to redox equilibrium
                        Activity of water  =   0.991
                 Ionic strength (mol/kgw)  =   2.640e-01
                       Mass of water (kg)  =   6.477e-02
                 Total alkalinity (eq/kg)  =  -1.051e-09
                         Temperature (°C)  =  -0.90
                  Electrical balance (eq)  =   6.804e-11
 Percent error, 100*(Cat-|An|)/(Cat+|An|)  =   0.00
                               Iterations  =  18 (1422 overall)
                         Gamma iterations  =   1
                      Osmotic coefficient  =   0.91716
                                  Total H  = 7.190648e+00
                                  Total O  = 3.595324e+00

----------------------------Distribution of species----------------------------

                                                    Unscaled  Unscaled
                                Unscaled       Log       Log       Log    mole V
   Species          Molality    Activity  Molality  Activity     Gamma    cm³/mol

   H+              1.539e-07   9.991e-08    -6.813    -7.000    -0.188      0.00
   OH-             1.529e-07   9.922e-08    -6.816    -7.003    -0.188     (0)  
   H2O             5.551e+01   9.913e-01     1.744    -0.004     0.000     18.02
Cl            2.640e-01
   Cl-             2.640e-01   1.886e-01    -0.578    -0.724    -0.146     (0)  
Na            2.640e-01
   Na+             2.640e-01   1.886e-01    -0.578    -0.724    -0.146     (0)  

------------------------------Saturation indices-------------------------------

  Phase               SI** log IAP   log K(272 K,   1 atm)

  Halite           -2.94     -1.45    1.50  NaCl
  Hydrohalite      -2.70     -1.46    1.24  NaCl:2H2O
  Ice(s)            0.00     -0.00   -0.00  H2O

**For a gas, SI = log10(fugacity). Fugacity = pressure * phi / 1 atm.
  For ideal gases, phi = 1.

Reaction step 11.

Using solution 1.	
Using pure phase assemblage 1.	
Using temperature 1.	

-------------------------------Phase assemblage--------------------------------

                                                      Moles in assemblage
Phase               SI  log IAP  log K(T, P)   Initial       Final       Delta

Anhydrite            Element not present.    0.000e+00           0   0.000e+00
Antarcticite         Element not present.    0.000e+00           0   0.000e+00
Arcanite             Element not present.    0.000e+00           0   0.000e+00
Bassanite            Element not present.    0.000e+00           0   0.000e+00
Bischofite           Element not present.    0.000e+00           0   0.000e+00
Bloedite             Element not present.    0.000e+00           0   0.000e+00
Carnallite           Element not present.    0.000e+00           0   0.000e+00
Epsomite             Element not present.    0.000e+00           0   0.000e+00
Glaserite            Element not present.    0.000e+00           0   0.000e+00
Glauberite           Element not present.    0.000e+00           0   0.000e+00
Gypsum               Element not present.    0.000e+00           0   0.000e+00
Halite           -2.86    -1.36      1.49    0.000e+00           0   0.000e+00
Hexahydrite          Element not present.    0.000e+00           0   0.000e+00
Hydrohalite      -2.62    -1.37      1.24    0.000e+00           0   0.000e+00
Ice(s)            0.00    -0.00     -0.00    0.000e+00   5.228e+01   5.228e+01
Kainite              Element not present.    0.000e+00           0   0.000e+00
Kieserite            Element not present.    0.000e+00           0   0.000e+00
Labile_Salt          Element not present.    0.000e+00           0   0.000e+00
Langbeinite          Element not present.    0.000e+00           0   0.000e+00
Leonite              Element not present.    0.000e+00           0   0.000e+00
Meridianiite         Element not present.    0.000e+00           0   0.000e+00
MgCl2:12H2O          Element not present.    0.000e+00           0   0.000e+00
MgCl2:8H2O           Element not present.    0.000e+00           0   0.000e+00
Mirabilite           Element not present.    0.000e+00           0   0.000e+00
Na2SO4:7H2O          Element not present.    0.000e+00           0   0.000e+00
Pentahydrite         Element not present.    0.000e+00           0   0.000e+00
Picromerite          Element not present.    0.000e+00           0   0.000e+00
Polyhalite           Element not present.    0.000e+00           0   0.000e+00
Starkeyite           Element not present.    0.000e+00           0   0.000e+00
Sylvite              Element not present.    0.000e+00           0   0.000e+00
Syngenite            Element not present.    0.000e+00           0   0.000e+00
Tachyhydrite         Element not present.    0.000e+00           0   0.000e+00
Thenardite           Element not present.    0.000e+00           0   0.000e+00

-----------------------------Solution composition------------------------------

	Elements           Molality       Moles

	Cl                2.938e-01   1.710e-02
	Na                2.938e-01   1.710e-02

----------------------------Description of solution----------------------------

                                       pH  =   7.000      Charge balance
                                       pe  =   4.000      Adjusted to redox equilibrium
                        Activity of water  =   0.990
                 Ionic strength (mol/kgw)  =   2.938e-01
                       Mass of water (kg)  =   5.821e-02
                 Total alkalinity (eq/kg)  =  -1.169e-09
                         Temperature (°C)  =  -1.00
                  Electrical balance (eq)  =   6.804e-11
 Percent error, 100*(Cat-|An|)/(Cat+|An|)  =   0.00
                               Iterations  =  19 (1423 overall)
                         Gamma iterations  =   1
                      Osmotic coefficient  =   0.91586
                                  Total H  = 6.461969e+00
                                  Total O  = 3.230985e+00

----------------------------Distribution of species----------------------------

                                                    Unscaled  Unscaled
                                Unscaled       Log       Log       Log    mole V
   Species          Molality    Activity  Molality  Activity     Gamma    cm³/mol

   H+              1.567e-07   9.989e-08    -6.805    -7.000    -0.196      0.00
   OH-             1.556e-07   9.914e-08    -6.808    -7.004    -0.196     (0)  
   H2O             5.551e+01   9.904e-01     1.744    -0.004     0.000     18.02
Cl            2.938e-01
   Cl-             2.938e-01   2.078e-01    -0.532    -0.682    -0.150     (0)  
Na            2.938e-01
   Na+             2.938e-01   2.078e-01    -0.532    -0.682    -0.150     (0)  

------------------------------Saturation indices-------------------------------

  Phase               SI** log IAP   log K(272 K,   1 atm)

  Halite           -2.86     -1.36    1.49  NaCl
  Hydrohalite      -2.62     -1.37    1.24  NaCl:2H2O
  Ice(s)            0.00     -0.00   -0.00  H2O

**For a gas, SI = log10(fugacity). Fugacity = pressure * phi / 1 atm.
  For ideal gases, phi = 1.

Reaction step 12.

Using solution 1.	
Using pure phase assemblage 1.	
Using temperature 1.	

-------------------------------Phase assemblage--------------------------------

                                                      Moles in assemblage
Phase               SI  log IAP  log K(T, P)   Initial       Final       Delta

Anhydrite            Element not present.    0.000e+00           0   0.000e+00
Antarcticite         Element not present.    0.000e+00           0   0.000e+00
Arcanite             Element not present.    0.000e+00           0   0.000e+00
Bassanite            Element not present.    0.000e+00           0   0.000e+00
Bischofite           Element not present.    0.000e+00           0   0.000e+00
Bloedite             Element not present.    0.000e+00           0   0.000e+00
Carnallite           Element not present.    0.000e+00           0   0.000e+00
Epsomite             Element not present.    0.000e+00           0   0.000e+00
Glaserite            Element not present.    0.000e+00           0   0.000e+00
Glauberite           Element not present.    0.000e+00           0   0.000e+00
Gypsum               Element not present.    0.000e+00           0   0.000e+00
Halite           -2.78    -1.29      1.49    0.000e+00           0   0.000e+00
Hexahydrite          Element not present.    0.000e+00           0   0.000e+00
Hydrohalite      -2.54    -1.30      1.24    0.000e+00           0   0.000e+00
Ice(s)            0.00    -0.00     -0.00    0.000e+00   5.258e+01   5.258e+01
Kainite              Element not present.    0.000e+00           0   0.000e+00
Kieserite            Element not present.    0.000e+00           0   0.000e+00
Labile_Salt          Element not present.    0.000e+00           0   0.000e+00
Langbeinite          Element not present.    0.000e+00           0   0.000e+00
Leonite              Element not present.    0.000e+00           0   0.000e+00
Meridianiite         Element not present.    0.000e+00           0   0.000e+00
MgCl2:12H2O          Element not present.    0.000e+00           0   0.000e+00
MgCl2:8H2O           Element not present.    0.000e+00           0   0.000e+00
Mirabilite           Element not present.    0.000e+00           0   0.000e+00
Na2SO4:7H2O          Element not present.    0.000e+00           0   0.000e+00
Pentahydrite         Element not present.    0.000e+00           0   0.000e+00
Picromerite          Element not present.    0.000e+00           0   0.000e+00
Polyhalite           Element not present.    0.000e+00           0   0.000e+00
Starkeyite           Element not present.    0.000e+00           0   0.000e+00
Sylvite              Element not present.    0.000e+00           0   0.000e+00
Syngenite            Element not present.    0.000e+00           0   0.000e+00
Tachyhydrite         Element not present.    0.000e+00           0   0.000e+00
Thenardite           Element not present.    0.000e+00           0   0.000e+00

-----------------------------Solution composition------------------------------

	Elements           Molality       Moles

	Cl                3.236e-01   1.710e-02
	Na                3.236e-01   1.710e-02

----------------------------Description of solution----------------------------

                                       pH  =   7.001      Charge balance
                                       pe  =   4.000      Adjusted to redox equilibrium
                        Activity of water  =   0.989
                 Ionic strength (mol/kgw)  =   3.236e-01
                       Mass of water (kg)  =   5.285e-02
                 Total alkalinity (eq/kg)  =  -1.288e-09
                         Temperature (°C)  =  -1.10
                  Electrical balance (eq)  =   6.804e-11
 Percent error, 100*(Cat-|An|)/(Cat+|An|)  =   0.00
                               Iterations  =  19 (1423 overall)
                         Gamma iterations  =   1
                      Osmotic coefficient  =   0.91477
                                  Total H  = 5.867165e+00
                                  Total O  = 2.933583e+00

----------------------------Distribution of species----------------------------

                                                    Unscaled  Unscaled
                                Unscaled       Log       Log       Log    mole V
   Species          Molality    Activity  Molality  Activity     Gamma    cm³/mol

   H+              1.594e-07   9.987e-08    -6.798    -7.001    -0.203      0.00
   OH-             1.581e-07   9.907e-08    -6.801    -7.004    -0.203     (0)  
   H2O             5.551e+01   9.894e-01     1.744    -0.005     0.000     18.02
Cl            3.236e-01
   Cl-             3.236e-01   2.267e-01    -0.490    -0.645    -0.154     (0)  
Na            3.236e-01
   Na+             3.236e-01   2.267e-01    -0.490    -0.645    -0.154     (0)  

------------------------------Saturation indices-------------------------------

  Phase               SI** log IAP   log K(272 K,   1 atm)

  Halite           -2.78     -1.29    1.49  NaCl
  Hydrohalite      -2.54     -1.30    1.24  NaCl:2H2O
  Ice(s)            0.00     -0.00   -0.00  H2O

**For a gas, SI = log10(fugacity). Fugacity = pressure * phi / 1 atm.
  For ideal gases, phi = 1.

Reaction step 13.

Using solution 1.	
Using pure phase assemblage 1.	
Using temperature 1.	

-------------------------------Phase assemblage--------------------------------

                                                      Moles in assemblage
Phase               SI  log IAP  log K(T, P)   Initial       Final       Delta

Anhydrite            Element not present.    0.000e+00           0   0.000e+00
Antarcticite         Element not present.    0.000e+00           0   0.000e+00
Arcanite             Element not present.    0.000e+00           0   0.000e+00
Bassanite            Element not present.    0.000e+00           0   0.000e+00
Bischofite           Element not present.    0.000e+00           0   0.000e+00
Bloedite             Element not present.    0.000e+00           0   0.000e+00
Carnallite           Element not present.    0.000e+00           0   0.000e+00
Epsomite             Element not present.    0.000e+00           0   0.000e+00
Glaserite            Element not present.    0.000e+00           0   0.000e+00
Glauberite           Element not present.    0.000e+00           0   0.000e+00
Gypsum               Element not present.    0.000e+00           0   0.000e+00
Halite           -2.71    -1.22      1.49    0.000e+00           0   0.000e+00
Hexahydrite          Element not present.    0.000e+00           0   0.000e+00
Hydrohalite      -2.47    -1.23      1.24    0.000e+00           0   0.000e+00
Ice(s)            0.00    -0.01     -0.01    0.000e+00   5.282e+01   5.282e+01
Kainite              Element not present.    0.000e+00           0   0.000e+00
Kieserite            Element not present.    0.000e+00           0   0.000e+00
Labile_Salt          Element not present.    0.000e+00           0   0.000e+00
Langbeinite          Element not present.    0.000e+00           0   0.000e+00
Leonite              Element not present.    0.000e+00           0   0.000e+00
Meridianiite         Element not present.    0.000e+00           0   0.000e+00
MgCl2:12H2O          Element not present.    0.000e+00           0   0.000e+00
MgCl2:8H2O           Element not present.    0.000e+00           0   0.000e+00
Mirabilite           Element not present.    0.000e+00           0   0.000e+00
Na2SO4:7H2O          Element not present.    0.000e+00           0   0.000e+00
Pentahydrite         Element not present.    0.000e+00           0   0.000e+00
[...]
Halite           -0.26     1.09      1.36    0.000e+00           0   0.000e+00
Hexahydrite          Element not present.    0.000e+00           0   0.000e+00
Hydrohalite       0.00     0.91      0.91    0.000e+00   1.710e-02   1.710e-02
Ice(s)            0.00    -0.09     -0.09    0.000e+00   5.548e+01   5.548e+01
Kainite              Element not present.    0.000e+00           0   0.000e+00
Kieserite            Element not present.    0.000e+00           0   0.000e+00
Labile_Salt          Element not present.    0.000e+00           0   0.000e+00
Langbeinite          Element not present.    0.000e+00           0   0.000e+00
Leonite              Element not present.    0.000e+00           0   0.000e+00
Meridianiite         Element not present.    0.000e+00           0   0.000e+00
MgCl2:12H2O          Element not present.    0.000e+00           0   0.000e+00
MgCl2:8H2O           Element not present.    0.000e+00           0   0.000e+00
Mirabilite           Element not present.    0.000e+00           0   0.000e+00
Na2SO4:7H2O          Element not present.    0.000e+00           0   0.000e+00
Pentahydrite         Element not present.    0.000e+00           0   0.000e+00
Picromerite          Element not present.    0.000e+00           0   0.000e+00
Polyhalite           Element not present.    0.000e+00           0   0.000e+00
Starkeyite           Element not present.    0.000e+00           0   0.000e+00
Sylvite              Element not present.    0.000e+00           0   0.000e+00
Syngenite            Element not present.    0.000e+00           0   0.000e+00
Tachyhydrite         Element not present.    0.000e+00           0   0.000e+00
Thenardite           Element not present.    0.000e+00           0   0.000e+00

-----------------------------Solution composition------------------------------

	Elements           Molality       Moles

	Cl                5.150e+00   6.905e-10
	Na                5.150e+00   6.905e-10

----------------------------Description of solution----------------------------

                                       pH  =   0.733      Charge balance
                                       pe  =   4.000      Adjusted to redox equilibrium
                        Activity of water  =   0.806
                 Ionic strength (mol/kgw)  =   5.404e+00
                       Mass of water (kg)  =   1.341e-10
                 Total alkalinity (eq/kg)  =  -5.075e-01
                         Temperature (°C)  = -22.00
                  Electrical balance (eq)  =   6.804e-11
 Percent error, 100*(Cat-|An|)/(Cat+|An|)  =   4.70
                               Iterations  = 132 (1536 overall)
                         Gamma iterations  =   1
                      Osmotic coefficient  =   1.10765
                                  Total H  = 1.495354e-08
                                  Total O  = 7.442748e-09

----------------------------Distribution of species----------------------------

                                                    Unscaled  Unscaled
                                Unscaled       Log       Log       Log    mole V
   Species          Molality    Activity  Molality  Activity     Gamma    cm³/mol

   H+              5.075e-01   1.848e-01    -0.295    -0.733    -0.439      0.00
   OH-             1.198e-13   4.361e-14   -12.922   -13.360    -0.439     (0)  
   H2O             5.551e+01   8.060e-01     1.744    -0.094     0.000     18.16
Cl            5.150e+00
   Cl-             5.150e+00   3.518e+00     0.712     0.546    -0.165     (0)  
Na            5.150e+00
   Na+             5.150e+00   3.518e+00     0.712     0.546    -0.165     (0)  

------------------------------Saturation indices-------------------------------

  Phase               SI** log IAP   log K(251 K,   1 atm)

  Halite           -0.26      1.09    1.36  NaCl
  Hydrohalite       0.00      0.91    0.91  NaCl:2H2O
  Ice(s)            0.00     -0.09   -0.09  H2O

**For a gas, SI = log10(fugacity). Fugacity = pressure * phi / 1 atm.
  For ideal gases, phi = 1.

Reaction step 222.

Using solution 1.	
Using pure phase assemblage 1.	
Using temperature 1.	

-------------------------------Phase assemblage--------------------------------

                                                      Moles in assemblage
Phase               SI  log IAP  log K(T, P)   Initial       Final       Delta

Anhydrite            Element not present.    0.000e+00           0   0.000e+00
Antarcticite         Element not present.    0.000e+00           0   0.000e+00
Arcanite             Element not present.    0.000e+00           0   0.000e+00
Bassanite            Element not present.    0.000e+00           0   0.000e+00
Bischofite           Element not present.    0.000e+00           0   0.000e+00
Bloedite             Element not present.    0.000e+00           0   0.000e+00
Carnallite           Element not present.    0.000e+00           0   0.000e+00
Epsomite             Element not present.    0.000e+00           0   0.000e+00
Glaserite            Element not present.    0.000e+00           0   0.000e+00
Glauberite           Element not present.    0.000e+00           0   0.000e+00
Gypsum               Element not present.    0.000e+00           0   0.000e+00
Halite           -0.26     1.09      1.36    0.000e+00           0   0.000e+00
Hexahydrite          Element not present.    0.000e+00           0   0.000e+00
Hydrohalite       0.00     0.90      0.90    0.000e+00   1.710e-02   1.710e-02
Ice(s)            0.00    -0.09     -0.09    0.000e+00   5.548e+01   5.548e+01
Kainite              Element not present.    0.000e+00           0   0.000e+00
Kieserite            Element not present.    0.000e+00           0   0.000e+00
Labile_Salt          Element not present.    0.000e+00           0   0.000e+00
Langbeinite          Element not present.    0.000e+00           0   0.000e+00
Leonite              Element not present.    0.000e+00           0   0.000e+00
Meridianiite         Element not present.    0.000e+00           0   0.000e+00
MgCl2:12H2O          Element not present.    0.000e+00           0   0.000e+00
MgCl2:8H2O           Element not present.    0.000e+00           0   0.000e+00
Mirabilite           Element not present.    0.000e+00           0   0.000e+00
Na2SO4:7H2O          Element not present.    0.000e+00           0   0.000e+00
Pentahydrite         Element not present.    0.000e+00           0   0.000e+00
Picromerite          Element not present.    0.000e+00           0   0.000e+00
Polyhalite           Element not present.    0.000e+00           0   0.000e+00
Starkeyite           Element not present.    0.000e+00           0   0.000e+00
Sylvite              Element not present.    0.000e+00           0   0.000e+00
Syngenite            Element not present.    0.000e+00           0   0.000e+00
Tachyhydrite         Element not present.    0.000e+00           0   0.000e+00
Thenardite           Element not present.    0.000e+00           0   0.000e+00

-----------------------------Solution composition------------------------------

	Elements           Molality       Moles

	Cl                5.151e+00   6.184e-10
	Na                5.151e+00   6.184e-10

----------------------------Description of solution----------------------------

                                       pH  =   0.685      Charge balance
                                       pe  =   4.000      Adjusted to redox equilibrium
                        Activity of water  =   0.805
                 Ionic strength (mol/kgw)  =   5.435e+00
                       Mass of water (kg)  =   1.200e-10
                 Total alkalinity (eq/kg)  =  -5.668e-01
                         Temperature (°C)  = -22.10
                  Electrical balance (eq)  =   6.804e-11
 Percent error, 100*(Cat-|An|)/(Cat+|An|)  =   5.21
                               Iterations  = 132 (1536 overall)
                         Gamma iterations  =   1
                      Osmotic coefficient  =   1.10636
                                  Total H  = 1.339448e-08
                                  Total O  = 6.663221e-09

----------------------------Distribution of species----------------------------

                                                    Unscaled  Unscaled
                                Unscaled       Log       Log       Log    mole V
   Species          Molality    Activity  Molality  Activity     Gamma    cm³/mol

   H+              5.668e-01   2.063e-01    -0.247    -0.685    -0.439      0.00
   OH-             1.072e-13   3.903e-14   -12.970   -13.409    -0.439     (0)  
   H2O             5.551e+01   8.052e-01     1.744    -0.094     0.000     18.16
Cl            5.151e+00
   Cl-             5.151e+00   3.515e+00     0.712     0.546    -0.166     (0)  
Na            5.151e+00
   Na+             5.151e+00   3.515e+00     0.712     0.546    -0.166     (0)  

------------------------------Saturation indices-------------------------------

  Phase               SI** log IAP   log K(251 K,   1 atm)

  Halite           -0.26      1.09    1.36  NaCl
  Hydrohalite       0.00      0.90    0.90  NaCl:2H2O
  Ice(s)            0.00     -0.09   -0.09  H2O

**For a gas, SI = log10(fugacity). Fugacity = pressure * phi / 1 atm.
  For ideal gases, phi = 1.

Reaction step 223.

Using solution 1.	
Using pure phase assemblage 1.	
Using temperature 1.	

-------------------------------Phase assemblage--------------------------------

                                                      Moles in assemblage
Phase               SI  log IAP  log K(T, P)   Initial       Final       Delta

Anhydrite            Element not present.    0.000e+00           0   0.000e+00
Antarcticite         Element not present.    0.000e+00           0   0.000e+00
Arcanite             Element not present.    0.000e+00           0   0.000e+00
Bassanite            Element not present.    0.000e+00           0   0.000e+00
Bischofite           Element not present.    0.000e+00           0   0.000e+00
Bloedite             Element not present.    0.000e+00           0   0.000e+00
Carnallite           Element not present.    0.000e+00           0   0.000e+00
Epsomite             Element not present.    0.000e+00           0   0.000e+00
Glaserite            Element not present.    0.000e+00           0   0.000e+00
Glauberite           Element not present.    0.000e+00           0   0.000e+00
Gypsum               Element not present.    0.000e+00           0   0.000e+00
Halite           -0.26     1.09      1.35    0.000e+00           0   0.000e+00
Hexahydrite          Element not present.    0.000e+00           0   0.000e+00
Hydrohalite       0.00     0.90      0.90    0.000e+00   1.710e-02   1.710e-02
Ice(s)            0.00    -0.09     -0.09    0.000e+00   5.548e+01   5.548e+01
Kainite              Element not present.    0.000e+00           0   0.000e+00
Kieserite            Element not present.    0.000e+00           0   0.000e+00
Labile_Salt          Element not present.    0.000e+00           0   0.000e+00
Langbeinite          Element not present.    0.000e+00           0   0.000e+00
Leonite              Element not present.    0.000e+00           0   0.000e+00
Meridianiite         Element not present.    0.000e+00           0   0.000e+00
MgCl2:12H2O          Element not present.    0.000e+00           0   0.000e+00
MgCl2:8H2O           Element not present.    0.000e+00           0   0.000e+00
Mirabilite           Element not present.    0.000e+00           0   0.000e+00
Na2SO4:7H2O          Element not present.    0.000e+00           0   0.000e+00
Pentahydrite         Element not present.    0.000e+00           0   0.000e+00
Picromerite          Element not present.    0.000e+00           0   0.000e+00
Polyhalite           Element not present.    0.000e+00           0   0.000e+00
Starkeyite           Element not present.    0.000e+00           0   0.000e+00
Sylvite              Element not present.    0.000e+00           0   0.000e+00
Syngenite            Element not present.    0.000e+00           0   0.000e+00
Tachyhydrite         Element not present.    0.000e+00           0   0.000e+00
Thenardite           Element not present.    0.000e+00           0   0.000e+00

-----------------------------Solution composition------------------------------

	Elements           Molality       Moles

	Cl                5.153e+00   5.598e-10
	Na                5.153e+00   5.598e-10

----------------------------Description of solution----------------------------

                                       pH  =   0.642      Charge balance
                                       pe  =   4.000      Adjusted to redox equilibrium
                        Activity of water  =   0.804
                 Ionic strength (mol/kgw)  =   5.466e+00
                       Mass of water (kg)  =   1.086e-10
                 Total alkalinity (eq/kg)  =  -6.263e-01
                         Temperature (°C)  = -22.20
                  Electrical balance (eq)  =   6.804e-11
 Percent error, 100*(Cat-|An|)/(Cat+|An|)  =   5.73
                               Iterations  = 133 (1537 overall)
                         Gamma iterations  =   1
                      Osmotic coefficient  =   1.10508
                                  Total H  = 1.212976e-08
                                  Total O  = 6.030859e-09

----------------------------Distribution of species----------------------------

                                                    Unscaled  Unscaled
                                Unscaled       Log       Log       Log    mole V
   Species          Molality    Activity  Molality  Activity     Gamma    cm³/mol

   H+              6.263e-01   2.279e-01    -0.203    -0.642    -0.439      0.00
   OH-             9.704e-14   3.530e-14   -13.013   -13.452    -0.439     (0)  
   H2O             5.551e+01   8.044e-01     1.744    -0.095     0.000     18.16
Cl            5.153e+00
   Cl-             5.153e+00   3.511e+00     0.712     0.545    -0.167     (0)  
Na            5.153e+00
   Na+             5.153e+00   3.511e+00     0.712     0.545    -0.167     (0)  

------------------------------Saturation indices-------------------------------

  Phase               SI** log IAP   log K(250 K,   1 atm)

  Halite           -0.26      1.09    1.35  NaCl
  Hydrohalite       0.00      0.90    0.90  NaCl:2H2O
  Ice(s)            0.00     -0.09   -0.09  H2O

**For a gas, SI = log10(fugacity). Fugacity = pressure * phi / 1 atm.
  For ideal gases, phi = 1.

Reaction step 224.

ERROR:               Ice(s) Pure phase has not converged. 	Residual: -2.180370e-01

Using solution 1.	
Using pure phase assemblage 1.	
Using temperature 1.	

-------------------------------Phase assemblage--------------------------------

                                                      Moles in assemblage
Phase               SI  log IAP  log K(T, P)   Initial       Final       Delta

Anhydrite            Element not present.    0.000e+00           0   0.000e+00
Antarcticite         Element not present.    0.000e+00           0   0.000e+00
Arcanite             Element not present.    0.000e+00           0   0.000e+00
Bassanite            Element not present.    0.000e+00           0   0.000e+00
Bischofite           Element not present.    0.000e+00           0   0.000e+00
Bloedite             Element not present.    0.000e+00           0   0.000e+00
Carnallite           Element not present.    0.000e+00           0   0.000e+00
Epsomite             Element not present.    0.000e+00           0   0.000e+00
Glaserite            Element not present.    0.000e+00           0   0.000e+00
Glauberite           Element not present.    0.000e+00           0   0.000e+00
Gypsum               Element not present.    0.000e+00           0   0.000e+00
Halite           -4.89    -3.53      1.35    0.000e+00           0   0.000e+00
Hexahydrite          Element not present.    0.000e+00           0   0.000e+00
Hydrohalite      -4.43    -3.53      0.90    0.000e+00           0   0.000e+00
Ice(s)            0.09    -0.00     -0.09    0.000e+00           0   0.000e+00
Kainite              Element not present.    0.000e+00           0   0.000e+00
Kieserite            Element not present.    0.000e+00           0   0.000e+00
Labile_Salt          Element not present.    0.000e+00           0   0.000e+00
Langbeinite          Element not present.    0.000e+00           0   0.000e+00
Leonite              Element not present.    0.000e+00           0   0.000e+00
Meridianiite         Element not present.    0.000e+00           0   0.000e+00
MgCl2:12H2O          Element not present.    0.000e+00           0   0.000e+00
MgCl2:8H2O           Element not present.    0.000e+00           0   0.000e+00
Mirabilite           Element not present.    0.000e+00           0   0.000e+00
Na2SO4:7H2O          Element not present.    0.000e+00           0   0.000e+00
Pentahydrite         Element not present.    0.000e+00           0   0.000e+00
Picromerite          Element not present.    0.000e+00           0   0.000e+00
Polyhalite           Element not present.    0.000e+00           0   0.000e+00
Starkeyite           Element not present.    0.000e+00           0   0.000e+00
Sylvite              Element not present.    0.000e+00           0   0.000e+00
Syngenite            Element not present.    0.000e+00           0   0.000e+00
Tachyhydrite         Element not present.    0.000e+00           0   0.000e+00
Thenardite           Element not present.    0.000e+00           0   0.000e+00

-----------------------------Solution composition------------------------------

	Elements           Molality       Moles

	Cl                1.710e-02   1.710e-02
	Na                1.710e-02   1.710e-02

----------------------------Description of solution----------------------------

                                       pH  =   7.000      Charge balance
                                       pe  =   4.000      Adjusted to redox equilibrium
                        Activity of water  =   0.999
                 Ionic strength (mol/kgw)  =   1.710e-02
                       Mass of water (kg)  =   1.000e+00
                 Total alkalinity (eq/kg)  =  -6.804e-11
                         Temperature (°C)  = -22.30
                  Electrical balance (eq)  =   6.804e-11
 Percent error, 100*(Cat-|An|)/(Cat+|An|)  =   0.00
                               Iterations  = 401 (2939 overall)
                         Gamma iterations  =   0
                      Osmotic coefficient  =   1.10378
                                  Total H  = 1.110186e+02
                                  Total O  = 5.550930e+01

----------------------------Distribution of species----------------------------

                                                    Unscaled  Unscaled
                                Unscaled       Log       Log       Log    mole V
   Species          Molality    Activity  Molality  Activity     Gamma    cm³/mol

   H+              1.000e-07   1.000e-07    -7.000    -7.000     0.000      0.00
   OH-             9.994e-08   9.994e-08    -7.000    -7.000     0.000     (0)  
   H2O             5.551e+01   9.994e-01     1.744    -0.000     0.000     18.16
Cl            1.710e-02
   Cl-             1.710e-02   1.710e-02    -1.767    -1.767     0.000     (0)  
Na            1.710e-02
   Na+             1.710e-02   1.710e-02    -1.767    -1.767     0.000     (0)  

------------------------------Saturation indices-------------------------------

  Phase               SI** log IAP   log K(250 K,   1 atm)

  Halite           -4.89     -3.53    1.35  NaCl
  Hydrohalite      -4.43     -3.53    0.90  NaCl:2H2O
  Ice(s)            0.09     -0.00   -0.09  H2O

**For a gas, SI = log10(fugacity). Fugacity = pressure * phi / 1 atm.
  For ideal gases, phi = 1.

ERROR: Numerical method failed on all combinations of convergence parameters, cell/soln/mix 1
--------------------------------
End of Run after 26.341 Seconds.
--------------------------------

