   Input file: C:\Users\nswol\Dropbox\Graduate School\Research\UTIG\Projects\2021-Wolfenbarger-Bulk Properties\PHREEQC\Europa\SO4-dominated.pqi
  Output file: C:\Users\nswol\Dropbox\Graduate School\Research\UTIG\Projects\2021-Wolfenbarger-Bulk Properties\PHREEQC\Europa\SO4-dominated.pqo
Database file: C:\Program Files (x86)\USGS\Phreeqc Interactive 3.7.3-15968\database\ColdChem.dat

------------------
Reading data base.
------------------

	SOLUTION_MASTER_SPECIES								
	SOLUTION_SPECIES								
	PHASES								
	PITZER								
------------------------------------
Reading input data for simulation 1.
------------------------------------

	DATABASE C:\Program Files (x86)\USGS\Phreeqc Interactive 3.7.3-15968\database\ColdChem.dat
	TITLE SO4-dominated
	SOLUTION
		units	mol/kgw
			Na	0.02308
			Mg	0.03077	
			Cl	0.00769
			S	0.03846	
	EQUILIBRIUM_PHASES
		Halite		0.0	0.0
		Hydrohalite		0.0	0.0
		Sylvite		0.0	0.0
		Bischofite		0.0	0.0
		MgCl2:8H2O		0.0	0.0
		MgCl2:12H2O		0.0	0.0
		Antarcticite	0.0	0.0
		Tachyhydrite	0.0	0.0
		Carnallite		0.0	0.0
		Thenardite		0.0	0.0
		Na2SO4:7H2O		0.0	0.0
		Mirabilite		0.0	0.0
		Arcanite		0.0	0.0
		Kieserite		0.0	0.0
		Starkeyite		0.0	0.0
		Pentahydrite	0.0	0.0
		Hexahydrite		0.0	0.0
		Epsomite		0.0	0.0
		Meridianiite	0.0	0.0
		Anhydrite		0.0	0.0
		Bassanite		0.0	0.0
		Gypsum		0.0	0.0
		Glaserite		0.0	0.0
		Bloedite		0.0	0.0
		Glauberite		0.0	0.0
		Labile_Salt		0.0	0.0
		Leonite		0.0	0.0
		Picromerite		0.0	0.0
		Langbeinite		0.0	0.0
		Syngenite		0.0	0.0
		Kainite		0.0	0.0
		Polyhalite		0.0	0.0
		Ice(s) 		0.0	0.0
	REACTION_TEMPERATURE
	        0 -40.0 in 401 steps
	END
-----
TITLE
-----

 SO4-dominated

-------------------------------------------
Beginning of initial solution calculations.
-------------------------------------------

Initial solution 1.	

-----------------------------Solution composition------------------------------

	Elements           Molality       Moles

	Cl                7.690e-03   7.690e-03
	Mg                3.077e-02   3.077e-02
	Na                2.308e-02   2.308e-02
	S                 3.846e-02   3.846e-02

----------------------------Description of solution----------------------------

                                       pH  =   7.000    
                                       pe  =   4.000    
                        Activity of water  =   0.999
                 Ionic strength (mol/kgw)  =   1.538e-01
                       Mass of water (kg)  =   1.000e+00
                 Total alkalinity (eq/kg)  =   5.676e-10
                         Temperature (°C)  =  25.00
                  Electrical balance (eq)  =   9.999e-06
 Percent error, 100*(Cat-|An|)/(Cat+|An|)  =   0.01
                               Iterations  =   5
                         Gamma iterations  =   3
                      Osmotic coefficient  =   0.73387
                                  Total H  = 1.110186e+02
                                  Total O  = 5.566314e+01

----------------------------Distribution of species----------------------------

                                                    Unscaled  Unscaled
                                Unscaled       Log       Log       Log    mole V
   Species          Molality    Activity  Molality  Activity     Gamma    cm³/mol

   OH-             1.439e-07   9.987e-08    -6.842    -7.001    -0.159     (0)  
   H+              1.434e-07   1.000e-07    -6.844    -7.000    -0.156      0.00
   H2O             5.551e+01   9.987e-01     1.744    -0.001     0.000     18.07
Cl            7.690e-03
   Cl-             7.690e-03   5.871e-03    -2.114    -2.231    -0.117     (0)  
Mg            3.077e-02
   Mg+2            3.077e-02   7.746e-03    -1.512    -2.111    -0.599     (0)  
Na            2.308e-02
   Na+             2.308e-02   1.703e-02    -1.637    -1.769    -0.132     (0)  
S(6)          3.846e-02
   SO4-2           3.846e-02   9.899e-03    -1.415    -2.004    -0.589     (0)  

------------------------------Saturation indices-------------------------------

  Phase               SI** log IAP   log K(298 K,   1 atm)

  Bischofite      -11.13     -6.58    4.55  MgCl2:6H2O
  Bloedite         -7.29     -9.66   -2.37  Na2SO4:MgSO4:4H2O
  Epsomite         -2.27     -4.12   -1.85  MgSO4:7H2O
  Halite           -5.59     -4.00    1.59  NaCl
  Hexahydrite      -2.55     -4.12   -1.56  MgSO4:6H2O
  Hydrohalite      -5.57     -4.00    1.57  NaCl:2H2O
  Ice(s)           -0.10     -0.00    0.10  H2O
  Kieserite        -4.06     -4.12   -0.05  MgSO4:H2O
  Meridianiite     -2.85     -4.12   -1.27  MgSO4:11H2O
  MgCl2:12H2O      -9.94     -6.58    3.36  MgCl2:12H2O
  MgCl2:8H2O      -10.72     -6.58    4.14  MgCl2:8H2O
  Mirabilite       -4.33     -5.55   -1.22  Na2SO4:10H2O
  Na2SO4:7H2O      -4.88     -5.55   -0.67  Na2SO4:7H2O
  Pentahydrite     -2.93     -4.12   -1.19  MgSO4:5H2O
  Starkeyite       -3.37     -4.12   -0.75  MgSO4:4H2O
  Thenardite       -5.24     -5.54   -0.30  Na2SO4

**For a gas, SI = log10(fugacity). Fugacity = pressure * phi / 1 atm.
  For ideal gases, phi = 1.

-----------------------------------------
Beginning of batch-reaction calculations.
-----------------------------------------

Reaction step 1.

WARNING: Element Ca is contained in Anhydrite (which has 0.0 mass),	
but is not in solution or other phases.
WARNING: Element Ca is contained in Antarcticite (which has 0.0 mass),	
but is not in solution or other phases.
WARNING: Element K is contained in Arcanite (which has 0.0 mass),	
but is not in solution or other phases.
WARNING: Element Ca is contained in Bassanite (which has 0.0 mass),	
but is not in solution or other phases.
WARNING: Element K is contained in Carnallite (which has 0.0 mass),	
but is not in solution or other phases.
WARNING: Element K is contained in Glaserite (which has 0.0 mass),	
but is not in solution or other phases.
WARNING: Element Ca is contained in Glauberite (which has 0.0 mass),	
but is not in solution or other phases.
WARNING: Element Ca is contained in Gypsum (which has 0.0 mass),	
but is not in solution or other phases.
WARNING: Element K is contained in Kainite (which has 0.0 mass),	
but is not in solution or other phases.
WARNING: Element Ca is contained in Labile_Salt (which has 0.0 mass),	
but is not in solution or other phases.
WARNING: Element K is contained in Langbeinite (which has 0.0 mass),	
but is not in solution or other phases.
WARNING: Element K is contained in Leonite (which has 0.0 mass),	
but is not in solution or other phases.
WARNING: Element K is contained in Picromerite (which has 0.0 mass),	
but is not in solution or other phases.
WARNING: Element Ca is contained in Polyhalite (which has 0.0 mass),	
but is not in solution or other phases.
WARNING: Element K is contained in Polyhalite (which has 0.0 mass),	
but is not in solution or other phases.
WARNING: Element K is contained in Sylvite (which has 0.0 mass),	
but is not in solution or other phases.
WARNING: Element Ca is contained in Syngenite (which has 0.0 mass),	
but is not in solution or other phases.
WARNING: Element K is contained in Syngenite (which has 0.0 mass),	
but is not in solution or other phases.
WARNING: Element Ca is contained in Tachyhydrite (which has 0.0 mass),	
but is not in solution or other phases.
Using solution 1.	
Using pure phase assemblage 1.	
Using temperature 1.	

-------------------------------Phase assemblage--------------------------------

                                                      Moles in assemblage
Phase               SI  log IAP  log K(T, P)   Initial       Final       Delta

Anhydrite            Element not present.    0.000e+00           0   0.000e+00
Antarcticite         Element not present.    0.000e+00           0   0.000e+00
Arcanite             Element not present.    0.000e+00           0   0.000e+00
Bassanite            Element not present.    0.000e+00           0   0.000e+00
Bischofite      -11.32    -6.55      4.78    0.000e+00           0   0.000e+00
Bloedite         -6.77    -9.60     -2.84    0.000e+00           0   0.000e+00
Carnallite           Element not present.    0.000e+00           0   0.000e+00
Epsomite         -1.99    -4.08     -2.09    0.000e+00           0   0.000e+00
Glaserite            Element not present.    0.000e+00           0   0.000e+00
Glauberite           Element not present.    0.000e+00           0   0.000e+00
Gypsum               Element not present.    0.000e+00           0   0.000e+00
Halite           -5.50    -4.00      1.50    0.000e+00           0   0.000e+00
Hexahydrite      -2.49    -4.08     -1.59    0.000e+00           0   0.000e+00
Hydrohalite      -5.26    -4.00      1.26    0.000e+00           0   0.000e+00
Ice(s)           -0.00    -0.00      0.00    0.000e+00           0   0.000e+00
Kainite              Element not present.    0.000e+00           0   0.000e+00
Kieserite        -4.71    -4.07      0.64    0.000e+00           0   0.000e+00
Labile_Salt          Element not present.    0.000e+00           0   0.000e+00
Langbeinite          Element not present.    0.000e+00           0   0.000e+00
Leonite              Element not present.    0.000e+00           0   0.000e+00
Meridianiite     -1.90    -4.08     -2.18    0.000e+00           0   0.000e+00
MgCl2:12H2O      -9.25    -6.55      2.70    0.000e+00           0   0.000e+00
MgCl2:8H2O      -10.46    -6.55      3.92    0.000e+00           0   0.000e+00
Mirabilite       -3.04    -5.53     -2.49    0.000e+00           0   0.000e+00
Na2SO4:7H2O      -3.94    -5.53     -1.59    0.000e+00           0   0.000e+00
Pentahydrite     -3.00    -4.08     -1.08    0.000e+00           0   0.000e+00
Picromerite          Element not present.    0.000e+00           0   0.000e+00
Polyhalite           Element not present.    0.000e+00           0   0.000e+00
Starkeyite       -3.58    -4.08     -0.50    0.000e+00           0   0.000e+00
Sylvite              Element not present.    0.000e+00           0   0.000e+00
Syngenite            Element not present.    0.000e+00           0   0.000e+00
Tachyhydrite         Element not present.    0.000e+00           0   0.000e+00
Thenardite       -5.20    -5.53     -0.32    0.000e+00           0   0.000e+00

-----------------------------Solution composition------------------------------

	Elements           Molality       Moles

	Cl                7.690e-03   7.690e-03
	Mg                3.077e-02   3.077e-02
	Na                2.308e-02   2.308e-02
	S                 3.846e-02   3.846e-02

----------------------------Description of solution----------------------------

                                       pH  =   7.000      Charge balance
                                       pe  =   4.000      Adjusted to redox equilibrium
                        Activity of water  =   0.999
                 Ionic strength (mol/kgw)  =   1.538e-01
                       Mass of water (kg)  =   1.000e+00
                 Total alkalinity (eq/kg)  =   5.676e-10
                         Temperature (°C)  =   0.00
                  Electrical balance (eq)  =   9.999e-06
 Percent error, 100*(Cat-|An|)/(Cat+|An|)  =   0.01
                               Iterations  =   3
                         Gamma iterations  =   2
                      Osmotic coefficient  =   0.73902
                                  Total H  = 1.110186e+02
                                  Total O  = 5.566314e+01

----------------------------Distribution of species----------------------------

                                                    Unscaled  Unscaled
                                Unscaled       Log       Log       Log    mole V
   Species          Molality    Activity  Molality  Activity     Gamma    cm³/mol

   OH-             1.422e-07   9.988e-08    -6.847    -7.001    -0.153     (0)  
   H+              1.416e-07   9.999e-08    -6.849    -7.000    -0.151      0.00
   H2O             5.551e+01   9.987e-01     1.744    -0.001     0.000     18.02
Cl            7.690e-03
   Cl-             7.690e-03   5.923e-03    -2.114    -2.227    -0.113     (0)  
Mg            3.077e-02
   Mg+2            3.077e-02   8.176e-03    -1.512    -2.087    -0.576     (0)  
Na            2.308e-02
   Na+             2.308e-02   1.697e-02    -1.637    -1.770    -0.134     (0)  
S(6)          3.846e-02
   SO4-2           3.846e-02   1.034e-02    -1.415    -1.985    -0.570     (0)  

------------------------------Saturation indices-------------------------------

  Phase               SI** log IAP   log K(273 K,   1 atm)

  Bischofite      -11.32     -6.55    4.78  MgCl2:6H2O
  Bloedite         -6.77     -9.60   -2.84  Na2SO4:MgSO4:4H2O
  Epsomite         -1.99     -4.08   -2.09  MgSO4:7H2O
  Halite           -5.50     -4.00    1.50  NaCl
  Hexahydrite      -2.49     -4.08   -1.59  MgSO4:6H2O
  Hydrohalite      -5.26     -4.00    1.26  NaCl:2H2O
  Ice(s)           -0.00     -0.00    0.00  H2O
  Kieserite        -4.71     -4.07    0.64  MgSO4:H2O
  Meridianiite     -1.90     -4.08   -2.18  MgSO4:11H2O
  MgCl2:12H2O      -9.25     -6.55    2.70  MgCl2:12H2O
  MgCl2:8H2O      -10.46     -6.55    3.92  MgCl2:8H2O
  Mirabilite       -3.04     -5.53   -2.49  Na2SO4:10H2O
  Na2SO4:7H2O      -3.94     -5.53   -1.59  Na2SO4:7H2O
  Pentahydrite     -3.00     -4.08   -1.08  MgSO4:5H2O
  Starkeyite       -3.58     -4.08   -0.50  MgSO4:4H2O
  Thenardite       -5.20     -5.53   -0.32  Na2SO4

**For a gas, SI = log10(fugacity). Fugacity = pressure * phi / 1 atm.
  For ideal gases, phi = 1.

Reaction step 2.

WARNING: Element Ca is contained in Anhydrite (which has 0.0 mass),	
but is not in solution or other phases.
WARNING: Element Ca is contained in Antarcticite (which has 0.0 mass),	
but is not in solution or other phases.
WARNING: Element K is contained in Arcanite (which has 0.0 mass),	
but is not in solution or other phases.
WARNING: Element Ca is contained in Bassanite (which has 0.0 mass),	
but is not in solution or other phases.
WARNING: Element K is contained in Carnallite (which has 0.0 mass),	
but is not in solution or other phases.
WARNING: Element K is contained in Glaserite (which has 0.0 mass),	
but is not in solution or other phases.
WARNING: Element Ca is contained in Glauberite (which has 0.0 mass),	
but is not in solution or other phases.
WARNING: Element Ca is contained in Gypsum (which has 0.0 mass),	
but is not in solution or other phases.
WARNING: Element K is contained in Kainite (which has 0.0 mass),	
but is not in solution or other phases.
WARNING: Element Ca is contained in Labile_Salt (which has 0.0 mass),	
but is not in solution or other phases.
WARNING: Element K is contained in Langbeinite (which has 0.0 mass),	
but is not in solution or other phases.
WARNING: Element K is contained in Leonite (which has 0.0 mass),	
but is not in solution or other phases.
WARNING: Element K is contained in Picromerite (which has 0.0 mass),	
but is not in solution or other phases.
WARNING: Element Ca is contained in Polyhalite (which has 0.0 mass),	
but is not in solution or other phases.
WARNING: Element K is contained in Polyhalite (which has 0.0 mass),	
but is not in solution or other phases.
WARNING: Element K is contained in Sylvite (which has 0.0 mass),	
but is not in solution or other phases.
WARNING: Element Ca is contained in Syngenite (which has 0.0 mass),	
but is not in solution or other phases.
WARNING: Element K is contained in Syngenite (which has 0.0 mass),	
but is not in solution or other phases.
WARNING: Element Ca is contained in Tachyhydrite (which has 0.0 mass),	
but is not in solution or other phases.
Using solution 1.	
Using pure phase assemblage 1.	
Using temperature 1.	

-------------------------------Phase assemblage--------------------------------

                                                      Moles in assemblage
Phase               SI  log IAP  log K(T, P)   Initial       Final       Delta

Anhydrite            Element not present.    0.000e+00           0   0.000e+00
Antarcticite         Element not present.    0.000e+00           0   0.000e+00
Arcanite             Element not present.    0.000e+00           0   0.000e+00
Bassanite            Element not present.    0.000e+00           0   0.000e+00
Bischofite      -11.32    -6.55      4.78    0.000e+00           0   0.000e+00
Bloedite         -6.76    -9.60     -2.84    0.000e+00           0   0.000e+00
Carnallite           Element not present.    0.000e+00           0   0.000e+00
Epsomite         -1.99    -4.08     -2.09    0.000e+00           0   0.000e+00
Glaserite            Element not present.    0.000e+00           0   0.000e+00
Glauberite           Element not present.    0.000e+00           0   0.000e+00
Gypsum               Element not present.    0.000e+00           0   0.000e+00
Halite           -5.50    -4.00      1.50    0.000e+00           0   0.000e+00
Hexahydrite      -2.49    -4.08     -1.59    0.000e+00           0   0.000e+00
Hydrohalite      -5.26    -4.00      1.26    0.000e+00           0   0.000e+00
Ice(s)           -0.00    -0.00     -0.00    0.000e+00           0   0.000e+00
Kainite              Element not present.    0.000e+00           0   0.000e+00
Kieserite        -4.72    -4.07      0.64    0.000e+00           0   0.000e+00
Labile_Salt          Element not present.    0.000e+00           0   0.000e+00
Langbeinite          Element not present.    0.000e+00           0   0.000e+00
Leonite              Element not present.    0.000e+00           0   0.000e+00
Meridianiite     -1.90    -4.08     -2.18    0.000e+00           0   0.000e+00
MgCl2:12H2O      -9.25    -6.55      2.70    0.000e+00           0   0.000e+00
MgCl2:8H2O      -10.46    -6.55      3.92    0.000e+00           0   0.000e+00
Mirabilite       -3.03    -5.53     -2.50    0.000e+00           0   0.000e+00
Na2SO4:7H2O      -3.94    -5.53     -1.59    0.000e+00           0   0.000e+00
Pentahydrite     -3.00    -4.08     -1.08    0.000e+00           0   0.000e+00
Picromerite          Element not present.    0.000e+00           0   0.000e+00
Polyhalite           Element not present.    0.000e+00           0   0.000e+00
Starkeyite       -3.58    -4.08     -0.50    0.000e+00           0   0.000e+00
Sylvite              Element not present.    0.000e+00           0   0.000e+00
Syngenite            Element not present.    0.000e+00           0   0.000e+00
Tachyhydrite         Element not present.    0.000e+00           0   0.000e+00
Thenardite       -5.20    -5.53     -0.32    0.000e+00           0   0.000e+00

-----------------------------Solution composition------------------------------

	Elements           Molality       Moles

	Cl                7.690e-03   7.690e-03
	Mg                3.077e-02   3.077e-02
	Na                2.308e-02   2.308e-02
	S                 3.846e-02   3.846e-02

----------------------------Description of solution----------------------------

                                       pH  =   7.000      Charge balance
                                       pe  =   4.000      Adjusted to redox equilibrium
                        Activity of water  =   0.999
                 Ionic strength (mol/kgw)  =   1.538e-01
                       Mass of water (kg)  =   1.000e+00
                 Total alkalinity (eq/kg)  =   5.676e-10
                         Temperature (°C)  =  -0.10
                  Electrical balance (eq)  =   9.999e-06
 Percent error, 100*(Cat-|An|)/(Cat+|An|)  =   0.01
                               Iterations  =   3
                         Gamma iterations  =   2
                      Osmotic coefficient  =   0.73903
                                  Total H  = 1.110186e+02
                                  Total O  = 5.566314e+01

----------------------------Distribution of species----------------------------

                                                    Unscaled  Unscaled
                                Unscaled       Log       Log       Log    mole V
   Species          Molality    Activity  Molality  Activity     Gamma    cm³/mol

   OH-             1.422e-07   9.988e-08    -6.847    -7.001    -0.153     (0)  
   H+              1.416e-07   9.999e-08    -6.849    -7.000    -0.151      0.00
   H2O             5.551e+01   9.987e-01     1.744    -0.001     0.000     18.02
Cl            7.690e-03
   Cl-             7.690e-03   5.923e-03    -2.114    -2.227    -0.113     (0)  
Mg            3.077e-02
   Mg+2            3.077e-02   8.177e-03    -1.512    -2.087    -0.576     (0)  
Na            2.308e-02
   Na+             2.308e-02   1.697e-02    -1.637    -1.770    -0.134     (0)  
S(6)          3.846e-02
   SO4-2           3.846e-02   1.034e-02    -1.415    -1.985    -0.570     (0)  

------------------------------Saturation indices-------------------------------

  Phase               SI** log IAP   log K(273 K,   1 atm)

  Bischofite      -11.32     -6.55    4.78  MgCl2:6H2O
  Bloedite         -6.76     -9.60   -2.84  Na2SO4:MgSO4:4H2O
  Epsomite         -1.99     -4.08   -2.09  MgSO4:7H2O
  Halite           -5.50     -4.00    1.50  NaCl
  Hexahydrite      -2.49     -4.08   -1.59  MgSO4:6H2O
  Hydrohalite      -5.26     -4.00    1.26  NaCl:2H2O
  Ice(s)           -0.00     -0.00   -0.00  H2O
  Kieserite        -4.72     -4.07    0.64  MgSO4:H2O
  Meridianiite     -1.90     -4.08   -2.18  MgSO4:11H2O
  MgCl2:12H2O      -9.25     -6.55    2.70  MgCl2:12H2O
  MgCl2:8H2O      -10.46     -6.55    3.92  MgCl2:8H2O
  Mirabilite       -3.03     -5.53   -2.50  Na2SO4:10H2O
  Na2SO4:7H2O      -3.94     -5.53   -1.59  Na2SO4:7H2O
  Pentahydrite     -3.00     -4.08   -1.08  MgSO4:5H2O
  Starkeyite       -3.58     -4.08   -0.50  MgSO4:4H2O
  Thenardite       -5.20     -5.53   -0.32  Na2SO4

**For a gas, SI = log10(fugacity). Fugacity = pressure * phi / 1 atm.
  For ideal gases, phi = 1.

Reaction step 3.

WARNING: Element Ca is contained in Anhydrite (which has 0.0 mass),	
but is not in solution or other phases.
WARNING: Element Ca is contained in Antarcticite (which has 0.0 mass),	
but is not in solution or other phases.
WARNING: Element K is contained in Arcanite (which has 0.0 mass),	
but is not in solution or other phases.
WARNING: Element Ca is contained in Bassanite (which has 0.0 mass),	
but is not in solution or other phases.
WARNING: Element K is contained in Carnallite (which has 0.0 mass),	
but is not in solution or other phases.
WARNING: Element K is contained in Glaserite (which has 0.0 mass),	
but is not in solution or other phases.
WARNING: Element Ca is contained in Glauberite (which has 0.0 mass),	
but is not in solution or other phases.
WARNING: Element Ca is contained in Gypsum (which has 0.0 mass),	
but is not in solution or other phases.
WARNING: Element K is contained in Kainite (which has 0.0 mass),	
but is not in solution or other phases.
WARNING: Element Ca is contained in Labile_Salt (which has 0.0 mass),	
but is not in solution or other phases.
WARNING: Element K is contained in Langbeinite (which has 0.0 mass),	
but is not in solution or other phases.
WARNING: Element K is contained in Leonite (which has 0.0 mass),	
but is not in solution or other phases.
WARNING: Element K is contained in Picromerite (which has 0.0 mass),	
but is not in solution or other phases.
WARNING: Element Ca is contained in Polyhalite (which has 0.0 mass),	
but is not in solution or other phases.
WARNING: Element K is contained in Polyhalite (which has 0.0 mass),	
but is not in solution or other phases.
WARNING: Element K is contained in Sylvite (which has 0.0 mass),	
but is not in solution or other phases.
WARNING: Element Ca is contained in Syngenite (which has 0.0 mass),	
but is not in solution or other phases.
WARNING: Element K is contained in Syngenite (which has 0.0 mass),	
but is not in solution or other phases.
WARNING: Element Ca is contained in Tachyhydrite (which has 0.0 mass),	
but is not in solution or other phases.
WARNING: Maximum iterations exceeded, 200

WARNING: Numerical method failed with this set of convergence parameters.

WARNING: Trying smaller step size, pe step size 10, 5 ... 

WARNING: Element Ca is contained in Anhydrite (which has 0.0 mass),	
but is not in solution or other phases.
WARNING: Element Ca is contained in Antarcticite (which has 0.0 mass),	
but is not in solution or other phases.
WARNING: Element K is contained in Arcanite (which has 0.0 mass),	
but is not in solution or other phases.
WARNING: Element Ca is contained in Bassanite (which has 0.0 mass),	
but is not in solution or other phases.
WARNING: Element K is contained in Carnallite (which has 0.0 mass),	
but is not in solution or other phases.
WARNING: Element K is contained in Glaserite (which has 0.0 mass),	
but is not in solution or other phases.
WARNING: Element Ca is contained in Glauberite (which has 0.0 mass),	
but is not in solution or other phases.
WARNING: Element Ca is contained in Gypsum (which has 0.0 mass),	
but is not in solution or other phases.
WARNING: Element K is contained in Kainite (which has 0.0 mass),	
but is not in solution or other phases.
WARNING: Element Ca is contained in Labile_Salt (which has 0.0 mass),	
but is not in solution or other phases.
WARNING: Element K is contained in Langbeinite (which has 0.0 mass),	
but is not in solution or other phases.
WARNING: Element K is contained in Leonite (which has 0.0 mass),	
but is not in solution or other phases.
WARNING: Element K is contained in Picromerite (which has 0.0 mass),	
but is not in solution or other phases.
WARNING: Element Ca is contained in Polyhalite (which has 0.0 mass),	
but is not in solution or other phases.
WARNING: Element K is contained in Polyhalite (which has 0.0 mass),	
but is not in solution or other phases.
WARNING: Element K is contained in Sylvite (which has 0.0 mass),	
but is not in solution or other phases.
WARNING: Element Ca is contained in Syngenite (which has 0.0 mass),	
but is not in solution or other phases.
WARNING: Element K is contained in Syngenite (which has 0.0 mass),	
but is not in solution or other phases.
WARNING: Element Ca is contained in Tachyhydrite (which has 0.0 mass),	
but is not in solution or other phases.
WARNING: Maximum iterations exceeded, 400

WARNING: Numerical method failed with this set of convergence parameters.

WARNING: Trying reduced tolerance 1e-16 ...

WARNING: Element Ca is contained in Anhydrite (which has 0.0 mass),	
but is not in solution or other phases.
WARNING: Element Ca is contained in Antarcticite (which has 0.0 mass),	
but is not in solution or other phases.
WARNING: Element K is contained in Arcanite (which has 0.0 mass),	
but is not in solution or other phases.
WARNING: Element Ca is contained in Bassanite (which has 0.0 mass),	
but is not in solution or other phases.
WARNING: Element K is contained in Carnallite (which has 0.0 mass),	
but is not in solution or other phases.
WARNING: Element K is contained in Glaserite (which has 0.0 mass),	
but is not in solution or other phases.
WARNING: Element Ca is contained in Glauberite (which has 0.0 mass),	
but is not in solution or other phases.
WARNING: Element Ca is contained in Gypsum (which has 0.0 mass),	
but is not in solution or other phases.
WARNING: Element K is contained in Kainite (which has 0.0 mass),	
but is not in solution or other phases.
WARNING: Element Ca is contained in Labile_Salt (which has 0.0 mass),	
but is not in solution or other phases.
WARNING: Element K is contained in Langbeinite (which has 0.0 mass),	
but is not in solution or other phases.
WARNING: Element K is contained in Leonite (which has 0.0 mass),	
but is not in solution or other phases.
WARNING: Element K is contained in Picromerite (which has 0.0 mass),	
but is not in solution or other phases.
WARNING: Element Ca is contained in Polyhalite (which has 0.0 mass),	
but is not in solution or other phases.
WARNING: Element K is contained in Polyhalite (which has 0.0 mass),	
but is not in solution or other phases.
WARNING: Element K is contained in Sylvite (which has 0.0 mass),	
but is not in solution or other phases.
WARNING: Element Ca is contained in Syngenite (which has 0.0 mass),	
but is not in solution or other phases.
WARNING: Element K is contained in Syngenite (which has 0.0 mass),	
but is not in solution or other phases.
Using solution 1.	
Using pure phase assemblage 1.	
Using temperature 1.	

-------------------------------Phase assemblage--------------------------------

                                                      Moles in assemblage
Phase               SI  log IAP  log K(T, P)   Initial       Final       Delta

Anhydrite            Element not present.    0.000e+00           0   0.000e+00
Antarcticite         Element not present.    0.000e+00           0   0.000e+00
Arcanite             Element not present.    0.000e+00           0   0.000e+00
Bassanite            Element not present.    0.000e+00           0   0.000e+00
Bischofite      -10.89    -6.12      4.78    0.000e+00           0   0.000e+00
Bloedite         -6.15    -8.99     -2.84    0.000e+00           0   0.000e+00
Carnallite           Element not present.    0.000e+00           0   0.000e+00
Epsomite         -1.79    -3.87     -2.09    0.000e+00           0   0.000e+00
Glaserite            Element not present.    0.000e+00           0   0.000e+00
Glauberite           Element not present.    0.000e+00           0   0.000e+00
Gypsum               Element not present.    0.000e+00           0   0.000e+00
Halite           -5.18    -3.68      1.50    0.000e+00           0   0.000e+00
Hexahydrite      -2.29    -3.87     -1.59    0.000e+00           0   0.000e+00
Hydrohalite      -4.94    -3.68      1.25    0.000e+00           0   0.000e+00
Ice(s)            0.00    -0.00     -0.00    0.000e+00   1.853e+01   1.853e+01
Kainite              Element not present.    0.000e+00           0   0.000e+00
Kieserite        -4.51    -3.87      0.64    0.000e+00           0   0.000e+00
Labile_Salt          Element not present.    0.000e+00           0   0.000e+00
Langbeinite          Element not present.    0.000e+00           0   0.000e+00
Leonite              Element not present.    0.000e+00           0   0.000e+00
Meridianiite     -1.69    -3.88     -2.19    0.000e+00           0   0.000e+00
MgCl2:12H2O      -8.81    -6.12      2.69    0.000e+00           0   0.000e+00
MgCl2:8H2O      -10.03    -6.12      3.91    0.000e+00           0   0.000e+00
Mirabilite       -2.62    -5.13     -2.50    0.000e+00           0   0.000e+00
Na2SO4:7H2O      -3.53    -5.12     -1.59    0.000e+00           0   0.000e+00
Pentahydrite     -2.80    -3.87     -1.08    0.000e+00           0   0.000e+00
Picromerite          Element not present.    0.000e+00           0   0.000e+00
Polyhalite           Element not present.    0.000e+00           0   0.000e+00
Starkeyite       -3.37    -3.87     -0.50    0.000e+00           0   0.000e+00
Sylvite              Element not present.    0.000e+00           0   0.000e+00
Syngenite            Element not present.    0.000e+00           0   0.000e+00
Tachyhydrite         Element not present.    0.000e+00           0   0.000e+00
Thenardite       -4.80    -5.12     -0.32    0.000e+00           0   0.000e+00

-----------------------------Solution composition------------------------------

	Elements           Molality       Moles

	Cl                1.154e-02   7.690e-03
	Mg                4.618e-02   3.077e-02
	Na                3.464e-02   2.308e-02
	S                 5.772e-02   3.846e-02

----------------------------Description of solution----------------------------

                                       pH  =   7.000      Charge balance
                                       pe  =   4.000      Adjusted to redox equilibrium
                        Activity of water  =   0.998
                 Ionic strength (mol/kgw)  =   2.309e-01
                       Mass of water (kg)  =   6.663e-01
                 Total alkalinity (eq/kg)  =   8.519e-10
                         Temperature (°C)  =  -0.20
                  Electrical balance (eq)  =   9.999e-06
 Percent error, 100*(Cat-|An|)/(Cat+|An|)  =   0.01
                               Iterations  =   7 (1411 overall)
                         Gamma iterations  =   1
                      Osmotic coefficient  =   0.71669
                                  Total H  = 7.396788e+01
                                  Total O  = 3.713778e+01

----------------------------Distribution of species----------------------------

                                                    Unscaled  Unscaled
                                Unscaled       Log       Log       Log    mole V
   Species          Molality    Activity  Molality  Activity     Gamma    cm³/mol

   OH-             1.517e-07   9.987e-08    -6.819    -7.001    -0.182     (0)  
   H+              1.509e-07   9.994e-08    -6.821    -7.000    -0.179      0.00
   H2O             5.551e+01   9.981e-01     1.744    -0.001     0.000     18.02
Cl            1.154e-02
   Cl-             1.154e-02   8.632e-03    -1.938    -2.064    -0.126     (0)  
Mg            4.618e-02
   Mg+2            4.618e-02   1.041e-02    -1.336    -1.983    -0.647     (0)  
Na            3.464e-02
   Na+             3.464e-02   2.423e-02    -1.460    -1.616    -0.155     (0)  
S(6)          5.772e-02
   SO4-2           5.772e-02   1.300e-02    -1.239    -1.886    -0.647     (0)  

------------------------------Saturation indices-------------------------------

  Phase               SI** log IAP   log K(272 K,   1 atm)

  Bischofite      -10.89     -6.12    4.78  MgCl2:6H2O
  Bloedite         -6.15     -8.99   -2.84  Na2SO4:MgSO4:4H2O
  Epsomite         -1.79     -3.87   -2.09  MgSO4:7H2O
  Halite           -5.18     -3.68    1.50  NaCl
  Hexahydrite      -2.29     -3.87   -1.59  MgSO4:6H2O
  Hydrohalite      -4.94     -3.68    1.25  NaCl:2H2O
  Ice(s)            0.00     -0.00   -0.00  H2O
  Kieserite        -4.51     -3.87    0.64  MgSO4:H2O
  Meridianiite     -1.69     -3.88   -2.19  MgSO4:11H2O
  MgCl2:12H2O      -8.81     -6.12    2.69  MgCl2:12H2O
  MgCl2:8H2O      -10.03     -6.12    3.91  MgCl2:8H2O
  Mirabilite       -2.62     -5.13   -2.50  Na2SO4:10H2O
  Na2SO4:7H2O      -3.53     -5.12   -1.59  Na2SO4:7H2O
  Pentahydrite     -2.80     -3.87   -1.08  MgSO4:5H2O
  Starkeyite       -3.37     -3.87   -0.50  MgSO4:4H2O
  Thenardite       -4.80     -5.12   -0.32  Na2SO4

**For a gas, SI = log10(fugacity). Fugacity = pressure * phi / 1 atm.
  For ideal gases, phi = 1.

Reaction step 4.

Using solution 1.	
Using pure phase assemblage 1.	
Using temperature 1.	

-------------------------------Phase assemblage--------------------------------

                                                      Moles in assemblage
Phase               SI  log IAP  log K(T, P)   Initial       Final       Delta

Anhydrite            Element not present.    0.000e+00           0   0.000e+00
Antarcticite         Element not present.    0.000e+00           0   0.000e+00
Arcanite             Element not present.    0.000e+00           0   0.000e+00
Bassanite            Element not present.    0.000e+00           0   0.000e+00
Bischofite      -10.43    -5.65      4.78    0.000e+00           0   0.000e+00
Bloedite         -5.51    -8.35     -2.84    0.000e+00           0   0.000e+00
Carnallite           Element not present.    0.000e+00           0   0.000e+00
Epsomite         -1.58    -3.67     -2.09    0.000e+00           0   0.000e+00
Glaserite            Element not present.    0.000e+00           0   0.000e+00
Glauberite           Element not present.    0.000e+00           0   0.000e+00
Gypsum               Element not present.    0.000e+00           0   0.000e+00
Halite           -4.84    -3.34      1.50    0.000e+00           0   0.000e+00
Hexahydrite      -2.08    -3.67     -1.59    0.000e+00           0   0.000e+00
Hydrohalite      -4.59    -3.34      1.25    0.000e+00           0   0.000e+00
Ice(s)            0.00    -0.00     -0.00    0.000e+00   3.167e+01   3.167e+01
Kainite              Element not present.    0.000e+00           0   0.000e+00
Kieserite        -4.31    -3.66      0.65    0.000e+00           0   0.000e+00
Labile_Salt          Element not present.    0.000e+00           0   0.000e+00
Langbeinite          Element not present.    0.000e+00           0   0.000e+00
Leonite              Element not present.    0.000e+00           0   0.000e+00
Meridianiite     -1.48    -3.67     -2.19    0.000e+00           0   0.000e+00
MgCl2:12H2O      -8.35    -5.66      2.69    0.000e+00           0   0.000e+00
MgCl2:8H2O       -9.57    -5.66      3.91    0.000e+00           0   0.000e+00
Mirabilite       -2.19    -4.70     -2.51    0.000e+00           0   0.000e+00
Na2SO4:7H2O      -3.10    -4.70     -1.60    0.000e+00           0   0.000e+00
Pentahydrite     -2.59    -3.66     -1.08    0.000e+00           0   0.000e+00
Picromerite          Element not present.    0.000e+00           0   0.000e+00
Polyhalite           Element not present.    0.000e+00           0   0.000e+00
Starkeyite       -3.17    -3.66     -0.50    0.000e+00           0   0.000e+00
Sylvite              Element not present.    0.000e+00           0   0.000e+00
Syngenite            Element not present.    0.000e+00           0   0.000e+00
Tachyhydrite         Element not present.    0.000e+00           0   0.000e+00
Thenardite       -4.37    -4.69     -0.32    0.000e+00           0   0.000e+00

-----------------------------Solution composition------------------------------

	Elements           Molality       Moles

	Cl                1.791e-02   7.690e-03
	Mg                7.165e-02   3.077e-02
	Na                5.374e-02   2.308e-02
	S                 8.955e-02   3.846e-02

----------------------------Description of solution----------------------------

                                       pH  =   7.001      Charge balance
                                       pe  =   4.000      Adjusted to redox equilibrium
                        Activity of water  =   0.997
                 Ionic strength (mol/kgw)  =   3.582e-01
                       Mass of water (kg)  =   4.295e-01
                 Total alkalinity (eq/kg)  =   1.322e-09
                         Temperature (°C)  =  -0.30
                  Electrical balance (eq)  =   9.999e-06
 Percent error, 100*(Cat-|An|)/(Cat+|An|)  =   0.01
                               Iterations  =   9 (1413 overall)
                         Gamma iterations  =   1
                      Osmotic coefficient  =   0.69300
                                  Total H  = 4.767816e+01
                                  Total O  = 2.399292e+01

----------------------------Distribution of species----------------------------

                                                    Unscaled  Unscaled
                                Unscaled       Log       Log       Log    mole V
   Species          Molality    Activity  Molality  Activity     Gamma    cm³/mol

   OH-             1.647e-07   9.986e-08    -6.783    -7.001    -0.217     (0)  
   H+              1.633e-07   9.985e-08    -6.787    -7.001    -0.214      0.00
   H2O             5.551e+01   9.971e-01     1.744    -0.001     0.000     18.02
Cl            1.791e-02
   Cl-             1.791e-02   1.299e-02    -1.747    -1.886    -0.139     (0)  
Mg            7.165e-02
   Mg+2            7.165e-02   1.341e-02    -1.145    -1.873    -0.728     (0)  
Na            5.374e-02
   Na+             5.374e-02   3.536e-02    -1.270    -1.451    -0.182     (0)  
S(6)          8.955e-02
   SO4-2           8.955e-02   1.640e-02    -1.048    -1.785    -0.737     (0)  

------------------------------Saturation indices-------------------------------

  Phase               SI** log IAP   log K(272 K,   1 atm)

  Bischofite      -10.43     -5.65    4.78  MgCl2:6H2O
  Bloedite         -5.51     -8.35   -2.84  Na2SO4:MgSO4:4H2O
  Epsomite         -1.58     -3.67   -2.09  MgSO4:7H2O
  Halite           -4.84     -3.34    1.50  NaCl
  Hexahydrite      -2.08     -3.67   -1.59  MgSO4:6H2O
  Hydrohalite      -4.59     -3.34    1.25  NaCl:2H2O
  Ice(s)            0.00     -0.00   -0.00  H2O
  Kieserite        -4.31     -3.66    0.65  MgSO4:H2O
  Meridianiite     -1.48     -3.67   -2.19  MgSO4:11H2O
  MgCl2:12H2O      -8.35     -5.66    2.69  MgCl2:12H2O
  MgCl2:8H2O       -9.57     -5.66    3.91  MgCl2:8H2O
  Mirabilite       -2.19     -4.70   -2.51  Na2SO4:10H2O
  Na2SO4:7H2O      -3.10     -4.70   -1.60  Na2SO4:7H2O
  Pentahydrite     -2.59     -3.66   -1.08  MgSO4:5H2O
  Starkeyite       -3.17     -3.66   -0.50  MgSO4:4H2O
  Thenardite       -4.37     -4.69   -0.32  Na2SO4

**For a gas, SI = log10(fugacity). Fugacity = pressure * phi / 1 atm.
  For ideal gases, phi = 1.

Reaction step 5.

Using solution 1.	
Using pure phase assemblage 1.	
Using temperature 1.	

-------------------------------Phase assemblage--------------------------------

                                                      Moles in assemblage
Phase               SI  log IAP  log K(T, P)   Initial       Final       Delta

Anhydrite            Element not present.    0.000e+00           0   0.000e+00
Antarcticite         Element not present.    0.000e+00           0   0.000e+00
Arcanite             Element not present.    0.000e+00           0   0.000e+00
Bassanite            Element not present.    0.000e+00           0   0.000e+00
Bischofite      -10.10    -5.32      4.78    0.000e+00           0   0.000e+00
Bloedite         -5.07    -7.91     -2.84    0.000e+00           0   0.000e+00
Carnallite           Element not present.    0.000e+00           0   0.000e+00
Epsomite         -1.43    -3.53     -2.09    0.000e+00           0   0.000e+00
Glaserite            Element not present.    0.000e+00           0   0.000e+00
Glauberite           Element not present.    0.000e+00           0   0.000e+00
Gypsum               Element not present.    0.000e+00           0   0.000e+00
Halite           -4.59    -3.10      1.50    0.000e+00           0   0.000e+00
Hexahydrite      -1.94    -3.52     -1.59    0.000e+00           0   0.000e+00
Hydrohalite      -4.35    -3.10      1.25    0.000e+00           0   0.000e+00
Ice(s)            0.00    -0.00     -0.00    0.000e+00   3.805e+01   3.805e+01
Kainite              Element not present.    0.000e+00           0   0.000e+00
Kieserite        -4.17    -3.52      0.65    0.000e+00           0   0.000e+00
Labile_Salt          Element not present.    0.000e+00           0   0.000e+00
Langbeinite          Element not present.    0.000e+00           0   0.000e+00
Leonite              Element not present.    0.000e+00           0   0.000e+00
Meridianiite     -1.34    -3.53     -2.19    0.000e+00           0   0.000e+00
MgCl2:12H2O      -8.02    -5.33      2.69    0.000e+00           0   0.000e+00
MgCl2:8H2O       -9.24    -5.33      3.91    0.000e+00           0   0.000e+00
Mirabilite       -1.90    -4.41     -2.51    0.000e+00           0   0.000e+00
Na2SO4:7H2O      -2.80    -4.40     -1.60    0.000e+00           0   0.000e+00
Pentahydrite     -2.45    -3.52     -1.08    0.000e+00           0   0.000e+00
Picromerite          Element not present.    0.000e+00           0   0.000e+00
Polyhalite           Element not present.    0.000e+00           0   0.000e+00
Starkeyite       -3.02    -3.52     -0.50    0.000e+00           0   0.000e+00
Sylvite              Element not present.    0.000e+00           0   0.000e+00
Syngenite            Element not present.    0.000e+00           0   0.000e+00
Tachyhydrite         Element not present.    0.000e+00           0   0.000e+00
Thenardite       -4.07    -4.39     -0.32    0.000e+00           0   0.000e+00

-----------------------------Solution composition------------------------------

	Elements           Molality       Moles

	Cl                2.445e-02   7.690e-03
	Mg                9.782e-02   3.077e-02
	Na                7.337e-02   2.308e-02
	S                 1.223e-01   3.846e-02

----------------------------Description of solution----------------------------

                                       pH  =   7.001      Charge balance
                                       pe  =   4.000      Adjusted to redox equilibrium
                        Activity of water  =   0.996
                 Ionic strength (mol/kgw)  =   4.891e-01
                       Mass of water (kg)  =   3.146e-01
                 Total alkalinity (eq/kg)  =   1.804e-09
                         Temperature (°C)  =  -0.40
                  Electrical balance (eq)  =   9.999e-06
 Percent error, 100*(Cat-|An|)/(Cat+|An|)  =   0.01
                               Iterations  =  10 (1414 overall)
                         Gamma iterations  =   1
                      Osmotic coefficient  =   0.67684
                                  Total H  = 3.492260e+01
                                  Total O  = 1.761514e+01

----------------------------Distribution of species----------------------------

                                                    Unscaled  Unscaled
                                Unscaled       Log       Log       Log    mole V
   Species          Molality    Activity  Molality  Activity     Gamma    cm³/mol

   OH-             1.759e-07   9.985e-08    -6.755    -7.001    -0.246     (0)  
   H+              1.741e-07   9.976e-08    -6.759    -7.001    -0.242      0.00
   H2O             5.551e+01   9.961e-01     1.744    -0.002     0.000     18.02
Cl            2.445e-02
   Cl-             2.445e-02   1.741e-02    -1.612    -1.759    -0.147     (0)  
Mg            9.782e-02
   Mg+2            9.782e-02   1.599e-02    -1.010    -1.796    -0.786     (0)  
Na            7.337e-02
   Na+             7.337e-02   4.598e-02    -1.134    -1.337    -0.203     (0)  
S(6)          1.223e-01
   SO4-2           1.223e-01   1.915e-02    -0.913    -1.718    -0.805     (0)  

------------------------------Saturation indices-------------------------------

  Phase               SI** log IAP   log K(272 K,   1 atm)

  Bischofite      -10.10     -5.32    4.78  MgCl2:6H2O
  Bloedite         -5.07     -7.91   -2.84  Na2SO4:MgSO4:4H2O
  Epsomite         -1.43     -3.53   -2.09  MgSO4:7H2O
  Halite           -4.59     -3.10    1.50  NaCl
  Hexahydrite      -1.94     -3.52   -1.59  MgSO4:6H2O
  Hydrohalite      -4.35     -3.10    1.25  NaCl:2H2O
  Ice(s)            0.00     -0.00   -0.00  H2O
  Kieserite        -4.17     -3.52    0.65  MgSO4:H2O
  Meridianiite     -1.34     -3.53   -2.19  MgSO4:11H2O
  MgCl2:12H2O      -8.02     -5.33    2.69  MgCl2:12H2O
  MgCl2:8H2O       -9.24     -5.33    3.91  MgCl2:8H2O
  Mirabilite       -1.90     -4.41   -2.51  Na2SO4:10H2O
  Na2SO4:7H2O      -2.80     -4.40   -1.60  Na2SO4:7H2O
  Pentahydrite     -2.45     -3.52   -1.08  MgSO4:5H2O
  Starkeyite       -3.02     -3.52   -0.50  MgSO4:4H2O
  Thenardite       -4.07     -4.39   -0.32  Na2SO4

**For a gas, SI = log10(fugacity). Fugacity = pressure * phi / 1 atm.
  For ideal gases, phi = 1.

Reaction step 6.

Using solution 1.	
Using pure phase assemblage 1.	
Using temperature 1.	

-------------------------------Phase assemblage--------------------------------

                                                      Moles in assemblage
Phase               SI  log IAP  log K(T, P)   Initial       Final       Delta

Anhydrite            Element not present.    0.000e+00           0   0.000e+00
Antarcticite         Element not present.    0.000e+00           0   0.000e+00
Arcanite             Element not present.    0.000e+00           0   0.000e+00
Bassanite            Element not present.    0.000e+00           0   0.000e+00
Bischofite       -9.85    -5.07      4.78    0.000e+00           0   0.000e+00
Bloedite         -4.73    -7.58     -2.85    0.000e+00           0   0.000e+00
Carnallite           Element not present.    0.000e+00           0   0.000e+00
Epsomite         -1.33    -3.42     -2.09    0.000e+00           0   0.000e+00
Glaserite            Element not present.    0.000e+00           0   0.000e+00
Glauberite           Element not present.    0.000e+00           0   0.000e+00
Gypsum               Element not present.    0.000e+00           0   0.000e+00
Halite           -4.41    -2.91      1.50    0.000e+00           0   0.000e+00
Hexahydrite      -1.83    -3.42     -1.59    0.000e+00           0   0.000e+00
Hydrohalite      -4.17    -2.91      1.25    0.000e+00           0   0.000e+00
Ice(s)            0.00    -0.00     -0.00    0.000e+00   4.179e+01   4.179e+01
Kainite              Element not present.    0.000e+00           0   0.000e+00
Kieserite        -4.06    -3.41      0.65    0.000e+00           0   0.000e+00
Labile_Salt          Element not present.    0.000e+00           0   0.000e+00
Langbeinite          Element not present.    0.000e+00           0   0.000e+00
Leonite              Element not present.    0.000e+00           0   0.000e+00
Meridianiite     -1.23    -3.43     -2.20    0.000e+00           0   0.000e+00
MgCl2:12H2O      -7.77    -5.08      2.69    0.000e+00           0   0.000e+00
MgCl2:8H2O       -8.99    -5.07      3.91    0.000e+00           0   0.000e+00
Mirabilite       -1.67    -4.19     -2.52    0.000e+00           0   0.000e+00
Na2SO4:7H2O      -2.58    -4.18     -1.61    0.000e+00           0   0.000e+00
Pentahydrite     -2.34    -3.42     -1.08    0.000e+00           0   0.000e+00
Picromerite          Element not present.    0.000e+00           0   0.000e+00
Polyhalite           Element not present.    0.000e+00           0   0.000e+00
Starkeyite       -2.92    -3.41     -0.49    0.000e+00           0   0.000e+00
Sylvite              Element not present.    0.000e+00           0   0.000e+00
Syngenite            Element not present.    0.000e+00           0   0.000e+00
Tachyhydrite         Element not present.    0.000e+00           0   0.000e+00
Thenardite       -3.85    -4.17     -0.32    0.000e+00           0   0.000e+00

-----------------------------Solution composition------------------------------

	Elements           Molality       Moles

	Cl                3.111e-02   7.690e-03
	Mg                1.245e-01   3.077e-02
	Na                9.337e-02   2.308e-02
	S                 1.556e-01   3.846e-02

----------------------------Description of solution----------------------------

                                       pH  =   7.001      Charge balance
                                       pe  =   4.000      Adjusted to redox equilibrium
                        Activity of water  =   0.995
                 Ionic strength (mol/kgw)  =   6.224e-01
                       Mass of water (kg)  =   2.472e-01
                 Total alkalinity (eq/kg)  =   2.296e-09
                         Temperature (°C)  =  -0.50
                  Electrical balance (eq)  =   9.999e-06
 Percent error, 100*(Cat-|An|)/(Cat+|An|)  =   0.01
                               Iterations  =  11 (1415 overall)
                         Gamma iterations  =   1
                      Osmotic coefficient  =   0.66486
                                  Total H  = 2.744151e+01
                                  Total O  = 1.387460e+01

----------------------------Distribution of species----------------------------

                                                    Unscaled  Unscaled
                                Unscaled       Log       Log       Log    mole V
   Species          Molality    Activity  Molality  Activity     Gamma    cm³/mol

   OH-             1.859e-07   9.984e-08    -6.731    -7.001    -0.270     (0)  
   H+              1.836e-07   9.968e-08    -6.736    -7.001    -0.265      0.00
   H2O             5.551e+01   9.952e-01     1.744    -0.002     0.000     18.02
Cl            3.111e-02
   Cl-             3.111e-02   2.189e-02    -1.507    -1.660    -0.153     (0)  
Mg            1.245e-01
   Mg+2            1.245e-01   1.832e-02    -0.905    -1.737    -0.832     (0)  
Na            9.337e-02
   Na+             9.337e-02   5.616e-02    -1.030    -1.251    -0.221     (0)  
S(6)          1.556e-01
   SO4-2           1.556e-01   2.149e-02    -0.808    -1.668    -0.860     (0)  

------------------------------Saturation indices-------------------------------

  Phase               SI** log IAP   log K(272 K,   1 atm)

  Bischofite       -9.85     -5.07    4.78  MgCl2:6H2O
  Bloedite         -4.73     -7.58   -2.85  Na2SO4:MgSO4:4H2O
  Epsomite         -1.33     -3.42   -2.09  MgSO4:7H2O
  Halite           -4.41     -2.91    1.50  NaCl
  Hexahydrite      -1.83     -3.42   -1.59  MgSO4:6H2O
  Hydrohalite      -4.17     -2.91    1.25  NaCl:2H2O
  Ice(s)            0.00     -0.00   -0.00  H2O
  Kieserite        -4.06     -3.41    0.65  MgSO4:H2O
  Meridianiite     -1.23     -3.43   -2.20  MgSO4:11H2O
  MgCl2:12H2O      -7.77     -5.08    2.69  MgCl2:12H2O
  MgCl2:8H2O       -8.99     -5.07    3.91  MgCl2:8H2O
  Mirabilite       -1.67     -4.19   -2.52  Na2SO4:10H2O
  Na2SO4:7H2O      -2.58     -4.18   -1.61  Na2SO4:7H2O
  Pentahydrite     -2.34     -3.42   -1.08  MgSO4:5H2O
  Starkeyite       -2.92     -3.41   -0.49  MgSO4:4H2O
  Thenardite       -3.85     -4.17   -0.32  Na2SO4

**For a gas, SI = log10(fugacity). Fugacity = pressure * phi / 1 atm.
  For ideal gases, phi = 1.

Reaction step 7.

Using solution 1.	
Using pure phase assemblage 1.	
Using temperature 1.	

-------------------------------Phase assemblage--------------------------------

                                                      Moles in assemblage
Phase               SI  log IAP  log K(T, P)   Initial       Final       Delta

Anhydrite            Element not present.    0.000e+00           0   0.000e+00
Antarcticite         Element not present.    0.000e+00           0   0.000e+00
Arcanite             Element not present.    0.000e+00           0   0.000e+00
Bassanite            Element not present.    0.000e+00           0   0.000e+00
Bischofite       -9.64    -4.86      4.78    0.000e+00           0   0.000e+00
Bloedite         -4.47    -7.32     -2.85    0.000e+00           0   0.000e+00
Carnallite           Element not present.    0.000e+00           0   0.000e+00
Epsomite         -1.24    -3.34     -2.09    0.000e+00           0   0.000e+00
Glaserite            Element not present.    0.000e+00           0   0.000e+00
Glauberite           Element not present.    0.000e+00           0   0.000e+00
Gypsum               Element not present.    0.000e+00           0   0.000e+00
Halite           -4.26    -2.76      1.50    0.000e+00           0   0.000e+00
Hexahydrite      -1.75    -3.33     -1.59    0.000e+00           0   0.000e+00
Hydrohalite      -4.01    -2.76      1.25    0.000e+00           0   0.000e+00
Ice(s)            0.00    -0.00     -0.00    0.000e+00   4.424e+01   4.424e+01
Kainite              Element not present.    0.000e+00           0   0.000e+00
Kieserite        -3.98    -3.32      0.66    0.000e+00           0   0.000e+00
Labile_Salt          Element not present.    0.000e+00           0   0.000e+00
Langbeinite          Element not present.    0.000e+00           0   0.000e+00
Leonite              Element not present.    0.000e+00           0   0.000e+00
Meridianiite     -1.14    -3.35     -2.20    0.000e+00           0   0.000e+00
MgCl2:12H2O      -7.56    -4.88      2.68    0.000e+00           0   0.000e+00
MgCl2:8H2O       -8.78    -4.87      3.91    0.000e+00           0   0.000e+00
Mirabilite       -1.49    -4.02     -2.52    0.000e+00           0   0.000e+00
Na2SO4:7H2O      -2.40    -4.01     -1.61    0.000e+00           0   0.000e+00
Pentahydrite     -2.26    -3.33     -1.07    0.000e+00           0   0.000e+00
Picromerite          Element not present.    0.000e+00           0   0.000e+00
Polyhalite           Element not present.    0.000e+00           0   0.000e+00
Starkeyite       -2.83    -3.33     -0.49    0.000e+00           0   0.000e+00
Sylvite              Element not present.    0.000e+00           0   0.000e+00
Syngenite            Element not present.    0.000e+00           0   0.000e+00
Tachyhydrite         Element not present.    0.000e+00           0   0.000e+00
Thenardite       -3.67    -3.99     -0.32    0.000e+00           0   0.000e+00

-----------------------------Solution composition------------------------------

	Elements           Molality       Moles

	Cl                3.787e-02   7.690e-03
	Mg                1.515e-01   3.077e-02
	Na                1.137e-01   2.308e-02
	S                 1.894e-01   3.846e-02

----------------------------Description of solution----------------------------

                                       pH  =   7.002      Charge balance
                                       pe  =   4.000      Adjusted to redox equilibrium
                        Activity of water  =   0.994
                 Ionic strength (mol/kgw)  =   7.576e-01
                       Mass of water (kg)  =   2.031e-01
                 Total alkalinity (eq/kg)  =   2.795e-09
                         Temperature (°C)  =  -0.60
                  Electrical balance (eq)  =   9.999e-06
 Percent error, 100*(Cat-|An|)/(Cat+|An|)  =   0.01
                               Iterations  =  12 (1416 overall)
                         Gamma iterations  =   1
                      Osmotic coefficient  =   0.65547
                                  Total H  = 2.254355e+01
                                  Total O  = 1.142561e+01

----------------------------Distribution of species----------------------------

                                                    Unscaled  Unscaled
                                Unscaled       Log       Log       Log    mole V
   Species          Molality    Activity  Molality  Activity     Gamma    cm³/mol

   OH-             1.952e-07   9.983e-08    -6.710    -7.001    -0.291     (0)  
   H+              1.924e-07   9.959e-08    -6.716    -7.002    -0.286      0.00
   H2O             5.551e+01   9.942e-01     1.744    -0.003     0.000     18.02
Cl            3.787e-02
   Cl-             3.787e-02   2.643e-02    -1.422    -1.578    -0.156     (0)  
Mg            1.515e-01
   Mg+2            1.515e-01   2.045e-02    -0.819    -1.689    -0.870     (0)  
Na            1.137e-01
   Na+             1.137e-01   6.596e-02    -0.944    -1.181    -0.236     (0)  
S(6)          1.894e-01
   SO4-2           1.894e-01   2.353e-02    -0.723    -1.628    -0.906     (0)  

------------------------------Saturation indices-------------------------------

  Phase               SI** log IAP   log K(272 K,   1 atm)

  Bischofite       -9.64     -4.86    4.78  MgCl2:6H2O
  Bloedite         -4.47     -7.32   -2.85  Na2SO4:MgSO4:4H2O
  Epsomite         -1.24     -3.34   -2.09  MgSO4:7H2O
  Halite           -4.26     -2.76    1.50  NaCl
  Hexahydrite      -1.75     -3.33   -1.59  MgSO4:6H2O
  Hydrohalite      -4.01     -2.76    1.25  NaCl:2H2O
  Ice(s)            0.00     -0.00   -0.00  H2O
  Kieserite        -3.98     -3.32    0.66  MgSO4:H2O
  Meridianiite     -1.14     -3.35   -2.20  MgSO4:11H2O
  MgCl2:12H2O      -7.56     -4.88    2.68  MgCl2:12H2O
  MgCl2:8H2O       -8.78     -4.87    3.91  MgCl2:8H2O
  Mirabilite       -1.49     -4.02   -2.52  Na2SO4:10H2O
  Na2SO4:7H2O      -2.40     -4.01   -1.61  Na2SO4:7H2O
  Pentahydrite     -2.26     -3.33   -1.07  MgSO4:5H2O
  Starkeyite       -2.83     -3.33   -0.49  MgSO4:4H2O
  Thenardite       -3.67     -3.99   -0.32  Na2SO4

**For a gas, SI = log10(fugacity). Fugacity = pressure * phi / 1 atm.
  For ideal gases, phi = 1.

Reaction step 8.

Using solution 1.	
Using pure phase assemblage 1.	
Using temperature 1.	

-------------------------------Phase assemblage--------------------------------

                                                      Moles in assemblage
Phase               SI  log IAP  log K(T, P)   Initial       Final       Delta

Anhydrite            Element not present.    0.000e+00           0   0.000e+00
Antarcticite         Element not present.    0.000e+00           0   0.000e+00
Arcanite             Element not present.    0.000e+00           0   0.000e+00
Bassanite            Element not present.    0.000e+00           0   0.000e+00
Bischofite       -9.46    -4.68      4.78    0.000e+00           0   0.000e+00
Bloedite         -4.25    -7.10     -2.85    0.000e+00           0   0.000e+00
Carnallite           Element not present.    0.000e+00           0   0.000e+00
Epsomite         -1.17    -3.27     -2.09    0.000e+00           0   0.000e+00
Glaserite            Element not present.    0.000e+00           0   0.000e+00
Glauberite           Element not present.    0.000e+00           0   0.000e+00
Gypsum               Element not present.    0.000e+00           0   0.000e+00
Halite           -4.13    -2.63      1.50    0.000e+00           0   0.000e+00
Hexahydrite      -1.68    -3.26     -1.59    0.000e+00           0   0.000e+00
Hydrohalite      -3.88    -2.64      1.25    0.000e+00           0   0.000e+00
Ice(s)            0.00    -0.00     -0.00    0.000e+00   4.596e+01   4.596e+01
Kainite              Element not present.    0.000e+00           0   0.000e+00
Kieserite        -3.91    -3.25      0.66    0.000e+00           0   0.000e+00
Labile_Salt          Element not present.    0.000e+00           0   0.000e+00
Langbeinite          Element not present.    0.000e+00           0   0.000e+00
Leonite              Element not present.    0.000e+00           0   0.000e+00
Meridianiite     -1.07    -3.28     -2.21    0.000e+00           0   0.000e+00
MgCl2:12H2O      -7.38    -4.70      2.68    0.000e+00           0   0.000e+00
MgCl2:8H2O       -8.60    -4.69      3.91    0.000e+00           0   0.000e+00
Mirabilite       -1.34    -3.87     -2.53    0.000e+00           0   0.000e+00
Na2SO4:7H2O      -2.25    -3.86     -1.62    0.000e+00           0   0.000e+00
Pentahydrite     -2.18    -3.26     -1.07    0.000e+00           0   0.000e+00
Picromerite          Element not present.    0.000e+00           0   0.000e+00
Polyhalite           Element not present.    0.000e+00           0   0.000e+00
Starkeyite       -2.76    -3.26     -0.49    0.000e+00           0   0.000e+00
Sylvite              Element not present.    0.000e+00           0   0.000e+00
Syngenite            Element not present.    0.000e+00           0   0.000e+00
Tachyhydrite         Element not present.    0.000e+00           0   0.000e+00
Thenardite       -3.52    -3.84     -0.32    0.000e+00           0   0.000e+00

-----------------------------Solution composition------------------------------

	Elements           Molality       Moles

	Cl                4.471e-02   7.690e-03
	Mg                1.789e-01   3.077e-02
	Na                1.342e-01   2.308e-02
	S                 2.236e-01   3.846e-02

----------------------------Description of solution----------------------------

                                       pH  =   7.002      Charge balance
                                       pe  =   4.000      Adjusted to redox equilibrium
                        Activity of water  =   0.993
                 Ionic strength (mol/kgw)  =   8.944e-01
                       Mass of water (kg)  =   1.720e-01
                 Total alkalinity (eq/kg)  =   3.300e-09
                         Temperature (°C)  =  -0.70
                  Electrical balance (eq)  =   9.999e-06
 Percent error, 100*(Cat-|An|)/(Cat+|An|)  =   0.01
                               Iterations  =  13 (1417 overall)
                         Gamma iterations  =   1
                      Osmotic coefficient  =   0.64784
                                  Total H  = 1.909684e+01
                                  Total O  = 9.702258e+00

----------------------------Distribution of species----------------------------

                                                    Unscaled  Unscaled
                                Unscaled       Log       Log       Log    mole V
   Species          Molality    Activity  Molality  Activity     Gamma    cm³/mol

   OH-             2.038e-07   9.983e-08    -6.691    -7.001    -0.310     (0)  
   H+              2.005e-07   9.950e-08    -6.698    -7.002    -0.304      0.00
   H2O             5.551e+01   9.932e-01     1.744    -0.003     0.000     18.02
Cl            4.471e-02
   Cl-             4.471e-02   3.106e-02    -1.350    -1.508    -0.158     (0)  
Mg            1.789e-01
   Mg+2            1.789e-01   2.245e-02    -0.747    -1.649    -0.901     (0)  
Na            1.342e-01
   Na+             1.342e-01   7.540e-02    -0.872    -1.123    -0.250     (0)  
S(6)          2.236e-01
   SO4-2           2.236e-01   2.534e-02    -0.651    -1.596    -0.946     (0)  

------------------------------Saturation indices-------------------------------

  Phase               SI** log IAP   log K(272 K,   1 atm)

  Bischofite       -9.46     -4.68    4.78  MgCl2:6H2O
  Bloedite         -4.25     -7.10   -2.85  Na2SO4:MgSO4:4H2O
  Epsomite         -1.17     -3.27   -2.09  MgSO4:7H2O
  Halite           -4.13     -2.63    1.50  NaCl
  Hexahydrite      -1.68     -3.26   -1.59  MgSO4:6H2O
  Hydrohalite      -3.88     -2.64    1.25  NaCl:2H2O
  Ice(s)            0.00     -0.00   -0.00  H2O
  Kieserite        -3.91     -3.25    0.66  MgSO4:H2O
  Meridianiite     -1.07     -3.28   -2.21  MgSO4:11H2O
  MgCl2:12H2O      -7.38     -4.70    2.68  MgCl2:12H2O
  MgCl2:8H2O       -8.60     -4.69    3.91  MgCl2:8H2O
  Mirabilite       -1.34     -3.87   -2.53  Na2SO4:10H2O
  Na2SO4:7H2O      -2.25     -3.86   -1.62  Na2SO4:7H2O
  Pentahydrite     -2.18     -3.26   -1.07  MgSO4:5H2O
  Starkeyite       -2.76     -3.26   -0.49  MgSO4:4H2O
  Thenardite       -3.52     -3.84   -0.32  Na2SO4

**For a gas, SI = log10(fugacity). Fugacity = pressure * phi / 1 atm.
  For ideal gases, phi = 1.

Reaction step 9.

Using solution 1.	
Using pure phase assemblage 1.	
Using temperature 1.	

-------------------------------Phase assemblage--------------------------------

                                                      Moles in assemblage
Phase               SI  log IAP  log K(T, P)   Initial       Final       Delta

Anhydrite            Element not present.    0.000e+00           0   0.000e+00
Antarcticite         Element not present.    0.000e+00           0   0.000e+00
Arcanite             Element not present.    0.000e+00           0   0.000e+00
Bassanite            Element not present.    0.000e+00           0   0.000e+00
Bischofite       -9.31    -4.53      4.78    0.000e+00           0   0.000e+00
Bloedite         -4.06    -6.91     -2.85    0.000e+00           0   0.000e+00
Carnallite           Element not present.    0.000e+00           0   0.000e+00
Epsomite         -1.11    -3.21     -2.10    0.000e+00           0   0.000e+00
Glaserite            Element not present.    0.000e+00           0   0.000e+00
Glauberite           Element not present.    0.000e+00           0   0.000e+00
Gypsum               Element not present.    0.000e+00           0   0.000e+00
Halite           -4.02    -2.52      1.50    0.000e+00           0   0.000e+00
Hexahydrite      -1.62    -3.20     -1.59    0.000e+00           0   0.000e+00
Hydrohalite      -3.77    -2.53      1.25    0.000e+00           0   0.000e+00
Ice(s)            0.00    -0.00     -0.00    0.000e+00   4.724e+01   4.724e+01
Kainite              Element not present.    0.000e+00           0   0.000e+00
Kieserite        -3.85    -3.19      0.66    0.000e+00           0   0.000e+00
Labile_Salt          Element not present.    0.000e+00           0   0.000e+00
Langbeinite          Element not present.    0.000e+00           0   0.000e+00
Leonite              Element not present.    0.000e+00           0   0.000e+00
Meridianiite     -1.01    -3.22     -2.21    0.000e+00           0   0.000e+00
MgCl2:12H2O      -7.22    -4.55      2.68    0.000e+00           0   0.000e+00
MgCl2:8H2O       -8.44    -4.53      3.91    0.000e+00           0   0.000e+00
Mirabilite       -1.21    -3.75     -2.54    0.000e+00           0   0.000e+00
Na2SO4:7H2O      -2.12    -3.74     -1.62    0.000e+00           0   0.000e+00
Pentahydrite     -2.13    -3.20     -1.07    0.000e+00           0   0.000e+00
Picromerite          Element not present.    0.000e+00           0   0.000e+00
Polyhalite           Element not present.    0.000e+00           0   0.000e+00
Starkeyite       -2.70    -3.20     -0.49    0.000e+00           0   0.000e+00
Sylvite              Element not present.    0.000e+00           0   0.000e+00
Syngenite            Element not present.    0.000e+00           0   0.000e+00
Tachyhydrite         Element not present.    0.000e+00           0   0.000e+00
Thenardite       -3.39    -3.72     -0.32    0.000e+00           0   0.000e+00

-----------------------------Solution composition------------------------------

	Elements           Molality       Moles

	Cl                5.160e-02   7.690e-03
	Mg                2.065e-01   3.077e-02
	Na                1.549e-01   2.308e-02
	S                 2.581e-01   3.846e-02

----------------------------Description of solution----------------------------

                                       pH  =   7.003      Charge balance
                                       pe  =   4.000      Adjusted to redox equilibrium
                        Activity of water  =   0.992
                 Ionic strength (mol/kgw)  =   1.032e+00
                       Mass of water (kg)  =   1.490e-01
                 Total alkalinity (eq/kg)  =   3.809e-09
                         Temperature (°C)  =  -0.80
                  Electrical balance (eq)  =   9.999e-06
 Percent error, 100*(Cat-|An|)/(Cat+|An|)  =   0.01
                               Iterations  =  14 (1418 overall)
                         Gamma iterations  =   1
                      Osmotic coefficient  =   0.64148
                                  Total H  = 1.654461e+01
                                  Total O  = 8.426143e+00

----------------------------Distribution of species----------------------------

                                                    Unscaled  Unscaled
                                Unscaled       Log       Log       Log    mole V
   Species          Molality    Activity  Molality  Activity     Gamma    cm³/mol

   OH-             2.119e-07   9.982e-08    -6.674    -7.001    -0.327     (0)  
   H+              2.080e-07   9.941e-08    -6.682    -7.003    -0.321      0.00
   H2O             5.551e+01   9.923e-01     1.744    -0.003     0.000     18.02
Cl            5.160e-02
   Cl-             5.160e-02   3.577e-02    -1.287    -1.446    -0.159     (0)  
Mg            2.065e-01
   Mg+2            2.065e-01   2.435e-02    -0.685    -1.614    -0.928     (0)  
Na            1.549e-01
   Na+             1.549e-01   8.452e-02    -0.810    -1.073    -0.263     (0)  
S(6)          2.581e-01
   SO4-2           2.581e-01   2.698e-02    -0.588    -1.569    -0.981     (0)  

------------------------------Saturation indices-------------------------------

  Phase               SI** log IAP   log K(272 K,   1 atm)

  Bischofite       -9.31     -4.53    4.78  MgCl2:6H2O
  Bloedite         -4.06     -6.91   -2.85  Na2SO4:MgSO4:4H2O
  Epsomite         -1.11     -3.21   -2.10  MgSO4:7H2O
  Halite           -4.02     -2.52    1.50  NaCl
  Hexahydrite      -1.62     -3.20   -1.59  MgSO4:6H2O
  Hydrohalite      -3.77     -2.53    1.25  NaCl:2H2O
  Ice(s)            0.00     -0.00   -0.00  H2O
  Kieserite        -3.85     -3.19    0.66  MgSO4:H2O
  Meridianiite     -1.01     -3.22   -2.21  MgSO4:11H2O
  MgCl2:12H2O      -7.22     -4.55    2.68  MgCl2:12H2O
  MgCl2:8H2O       -8.44     -4.53    3.91  MgCl2:8H2O
  Mirabilite       -1.21     -3.75   -2.54  Na2SO4:10H2O
  Na2SO4:7H2O      -2.12     -3.74   -1.62  Na2SO4:7H2O
  Pentahydrite     -2.13     -3.20   -1.07  MgSO4:5H2O
  Starkeyite       -2.70     -3.20   -0.49  MgSO4:4H2O
  Thenardite       -3.39     -3.72   -0.32  Na2SO4

**For a gas, SI = log10(fugacity). Fugacity = pressure * phi / 1 atm.
  For ideal gases, phi = 1.

Reaction step 10.

Using solution 1.	
Using pure phase assemblage 1.	
Using temperature 1.	

-------------------------------Phase assemblage--------------------------------

                                                      Moles in assemblage
Phase               SI  log IAP  log K(T, P)   Initial       Final       Delta

Anhydrite            Element not present.    0.000e+00           0   0.000e+00
Antarcticite         Element not present.    0.000e+00           0   0.000e+00
Arcanite             Element not present.    0.000e+00           0   0.000e+00
Bassanite            Element not present.    0.000e+00           0   0.000e+00
Bischofite       -9.17    -4.39      4.78    0.000e+00           0   0.000e+00
Bloedite         -3.89    -6.75     -2.86    0.000e+00           0   0.000e+00
Carnallite           Element not present.    0.000e+00           0   0.000e+00
Epsomite         -1.06    -3.15     -2.10    0.000e+00           0   0.000e+00
Glaserite            Element not present.    0.000e+00           0   0.000e+00
Glauberite           Element not present.    0.000e+00           0   0.000e+00
Gypsum               Element not present.    0.000e+00           0   0.000e+00
Halite           -3.92    -2.42      1.50    0.000e+00           0   0.000e+00
Hexahydrite      -1.56    -3.15     -1.59    0.000e+00           0   0.000e+00
Hydrohalite      -3.67    -2.43      1.24    0.000e+00           0   0.000e+00
Ice(s)            0.00    -0.00     -0.00    0.000e+00   4.822e+01   4.822e+01
Kainite              Element not present.    0.000e+00           0   0.000e+00
Kieserite        -3.80    -3.13      0.66    0.000e+00           0   0.000e+00
Labile_Salt          Element not present.    0.000e+00           0   0.000e+00
Langbeinite          Element not present.    0.000e+00           0   0.000e+00
Leonite              Element not present.    0.000e+00           0   0.000e+00
Meridianiite     -0.96    -3.17     -2.21    0.000e+00           0   0.000e+00
MgCl2:12H2O      -7.09    -4.41      2.67    0.000e+00           0   0.000e+00
MgCl2:8H2O       -8.30    -4.40      3.91    0.000e+00           0   0.000e+00
Mirabilite       -1.10    -3.64     -2.54    0.000e+00           0   0.000e+00
Na2SO4:7H2O      -2.01    -3.63     -1.62    0.000e+00           0   0.000e+00
Pentahydrite     -2.07    -3.15     -1.07    0.000e+00           0   0.000e+00
Picromerite          Element not present.    0.000e+00           0   0.000e+00
Polyhalite           Element not present.    0.000e+00           0   0.000e+00
Starkeyite       -2.65    -3.14     -0.49    0.000e+00           0   0.000e+00
Sylvite              Element not present.    0.000e+00           0   0.000e+00
Syngenite            Element not present.    0.000e+00           0   0.000e+00
Tachyhydrite         Element not present.    0.000e+00           0   0.000e+00
Thenardite       -3.28    -3.61     -0.32    0.000e+00           0   0.000e+00

-----------------------------Solution composition------------------------------

	Elements           Molality       Moles

	Cl                5.855e-02   7.690e-03
	Mg                2.343e-01   3.077e-02
	Na                1.757e-01   2.308e-02
	S                 2.928e-01   3.846e-02

----------------------------Description of solution----------------------------

                                       pH  =   7.003      Charge balance
                                       pe  =   4.000      Adjusted to redox equilibrium
                        Activity of water  =   0.991
                 Ionic strength (mol/kgw)  =   1.171e+00
                       Mass of water (kg)  =   1.313e-01
                 Total alkalinity (eq/kg)  =   4.321e-09
                         Temperature (°C)  =  -0.90
                  Electrical balance (eq)  =   9.999e-06
 Percent error, 100*(Cat-|An|)/(Cat+|An|)  =   0.01
                               Iterations  =  15 (1419 overall)
                         Gamma iterations  =   1
                      Osmotic coefficient  =   0.63609
                                  Total H  = 1.458187e+01
                                  Total O  = 7.444773e+00

----------------------------Distribution of species----------------------------

                                                    Unscaled  Unscaled
                                Unscaled       Log       Log       Log    mole V
   Species          Molality    Activity  Molality  Activity     Gamma    cm³/mol

   OH-             2.195e-07   9.981e-08    -6.659    -7.001    -0.342     (0)  
   H+              2.152e-07   9.932e-08    -6.667    -7.003    -0.336      0.00
   H2O             5.551e+01   9.913e-01     1.744    -0.004     0.000     18.02
Cl            5.855e-02
   Cl-             5.855e-02   4.058e-02    -1.232    -1.392    -0.159     (0)  
Mg            2.343e-01
   Mg+2            2.343e-01   2.616e-02    -0.630    -1.582    -0.952     (0)  
Na            1.757e-01
   Na+             1.757e-01   9.335e-02    -0.755    -1.030    -0.275     (0)  
S(6)          2.928e-01
   SO4-2           2.928e-01   2.846e-02    -0.533    -1.546    -1.012     (0)  

------------------------------Saturation indices-------------------------------

  Phase               SI** log IAP   log K(272 K,   1 atm)

  Bischofite       -9.17     -4.39    4.78  MgCl2:6H2O
  Bloedite         -3.89     -6.75   -2.86  Na2SO4:MgSO4:4H2O
  Epsomite         -1.06     -3.15   -2.10  MgSO4:7H2O
  Halite           -3.92     -2.42    1.50  NaCl
  Hexahydrite      -1.56     -3.15   -1.59  MgSO4:6H2O
  Hydrohalite      -3.67     -2.43    1.24  NaCl:2H2O
  Ice(s)            0.00     -0.00   -0.00  H2O
  Kieserite        -3.80     -3.13    0.66  MgSO4:H2O
  Meridianiite     -0.96     -3.17   -2.21  MgSO4:11H2O
  MgCl2:12H2O      -7.09     -4.41    2.67  MgCl2:12H2O
  MgCl2:8H2O       -8.30     -4.40    3.91  MgCl2:8H2O
  Mirabilite       -1.10     -3.64   -2.54  Na2SO4:10H2O
  Na2SO4:7H2O      -2.01     -3.63   -1.62  Na2SO4:7H2O
  Pentahydrite     -2.07     -3.15   -1.07  MgSO4:5H2O
  Starkeyite       -2.65     -3.14   -0.49  MgSO4:4H2O
  Thenardite       -3.28     -3.61   -0.32  Na2SO4

**For a gas, SI = log10(fugacity). Fugacity = pressure * phi / 1 atm.
  For ideal gases, phi = 1.

Reaction step 11.

Using solution 1.	
Using pure phase assemblage 1.	
Using temperature 1.	

-------------------------------Phase assemblage--------------------------------

                                                      Moles in assemblage
Phase               SI  log IAP  log K(T, P)   Initial       Final       Delta

Anhydrite            Element not present.    0.000e+00           0   0.000e+00
Antarcticite         Element not present.    0.000e+00           0   0.000e+00
Arcanite             Element not present.    0.000e+00           0   0.000e+00
Bassanite            Element not present.    0.000e+00           0   0.000e+00
Bischofite       -9.05    -4.26      4.78    0.000e+00           0   0.000e+00
Bloedite         -3.75    -6.61     -2.86    0.000e+00           0   0.000e+00
Carnallite           Element not present.    0.000e+00           0   0.000e+00
Epsomite         -1.01    -3.11     -2.10    0.000e+00           0   0.000e+00
Glaserite            Element not present.    0.000e+00           0   0.000e+00
Glauberite           Element not present.    0.000e+00           0   0.000e+00
Gypsum               Element not present.    0.000e+00           0   0.000e+00
Halite           -3.83    -2.33      1.49    0.000e+00           0   0.000e+00
Hexahydrite      -1.52    -3.11     -1.59    0.000e+00           0   0.000e+00
Hydrohalite      -3.59    -2.34      1.24    0.000e+00           0   0.000e+00
Ice(s)            0.00    -0.00     -0.00    0.000e+00   4.900e+01   4.900e+01
Kainite              Element not present.    0.000e+00           0   0.000e+00
Kieserite        -3.75    -3.08      0.67    0.000e+00           0   0.000e+00
Labile_Salt          Element not present.    0.000e+00           0   0.000e+00
Langbeinite          Element not present.    0.000e+00           0   0.000e+00
Leonite              Element not present.    0.000e+00           0   0.000e+00
Meridianiite     -0.91    -3.13     -2.22    0.000e+00           0   0.000e+00
[...]

  Bischofite       -2.87      2.17    5.04  MgCl2:6H2O
  Bloedite         -1.79     -5.61   -3.82  Na2SO4:MgSO4:4H2O
  Epsomite         -0.50     -2.98   -2.47  MgSO4:7H2O
  Halite           -0.28      0.99    1.28  NaCl
  Hexahydrite      -1.16     -2.84   -1.68  MgSO4:6H2O
  Hydrohalite      -0.01      0.73    0.74  NaCl:2H2O
  Ice(s)            0.00     -0.13   -0.13  H2O
  Kieserite        -3.68     -2.18    1.50  MgSO4:H2O
  Meridianiite      0.00     -3.50   -3.50  MgSO4:11H2O
  MgCl2:12H2O      -0.38      1.38    1.76  MgCl2:12H2O
  MgCl2:8H2O       -1.64      1.91    3.55  MgCl2:8H2O
  Mirabilite       -0.00     -4.36   -4.36  Na2SO4:10H2O
  Na2SO4:7H2O      -0.98     -3.96   -2.98  Na2SO4:7H2O
  Pentahydrite     -1.72     -2.71   -0.99  MgSO4:5H2O
  Starkeyite       -2.35     -2.58   -0.23  MgSO4:4H2O
  Thenardite       -2.52     -3.03   -0.52  Na2SO4

**For a gas, SI = log10(fugacity). Fugacity = pressure * phi / 1 atm.
  For ideal gases, phi = 1.

Reaction step 312.

Using solution 1.	
Using pure phase assemblage 1.	
Using temperature 1.	

-------------------------------Phase assemblage--------------------------------

                                                      Moles in assemblage
Phase               SI  log IAP  log K(T, P)   Initial       Final       Delta

Anhydrite            Element not present.    0.000e+00           0   0.000e+00
Antarcticite         Element not present.    0.000e+00           0   0.000e+00
Arcanite             Element not present.    0.000e+00           0   0.000e+00
Bassanite            Element not present.    0.000e+00           0   0.000e+00
Bischofite       -2.86     2.18      5.04    0.000e+00           0   0.000e+00
Bloedite         -1.79    -5.62     -3.82    0.000e+00           0   0.000e+00
Carnallite           Element not present.    0.000e+00           0   0.000e+00
Epsomite         -0.50    -2.98     -2.47    0.000e+00           0   0.000e+00
Glaserite            Element not present.    0.000e+00           0   0.000e+00
Glauberite           Element not present.    0.000e+00           0   0.000e+00
Gypsum               Element not present.    0.000e+00           0   0.000e+00
Halite           -0.28     0.99      1.28    0.000e+00           0   0.000e+00
Hexahydrite      -1.16    -2.85     -1.68    0.000e+00           0   0.000e+00
Hydrohalite      -0.01     0.73      0.73    0.000e+00           0   0.000e+00
Ice(s)            0.00    -0.13     -0.13    0.000e+00   5.502e+01   5.502e+01
Kainite              Element not present.    0.000e+00           0   0.000e+00
Kieserite        -3.69    -2.18      1.51    0.000e+00           0   0.000e+00
Labile_Salt          Element not present.    0.000e+00           0   0.000e+00
Langbeinite          Element not present.    0.000e+00           0   0.000e+00
Leonite              Element not present.    0.000e+00           0   0.000e+00
Meridianiite      0.00    -3.51     -3.51    0.000e+00   2.777e-02   2.777e-02
MgCl2:12H2O      -0.37     1.38      1.76    0.000e+00           0   0.000e+00
MgCl2:8H2O       -1.63     1.92      3.55    0.000e+00           0   0.000e+00
Mirabilite        0.00    -4.36     -4.36    0.000e+00   1.060e-02   1.060e-02
Na2SO4:7H2O      -0.98    -3.97     -2.99    0.000e+00           0   0.000e+00
Pentahydrite     -1.72    -2.71     -0.99    0.000e+00           0   0.000e+00
Picromerite          Element not present.    0.000e+00           0   0.000e+00
Polyhalite           Element not present.    0.000e+00           0   0.000e+00
Starkeyite       -2.35    -2.58     -0.23    0.000e+00           0   0.000e+00
Sylvite              Element not present.    0.000e+00           0   0.000e+00
Syngenite            Element not present.    0.000e+00           0   0.000e+00
Tachyhydrite         Element not present.    0.000e+00           0   0.000e+00
Thenardite       -2.52    -3.04     -0.52    0.000e+00           0   0.000e+00

-----------------------------Solution composition------------------------------

	Elements           Molality       Moles

	Cl                5.661e+00   7.690e-03
	Mg                2.206e+00   2.997e-03
	Na                1.378e+00   1.872e-03
	S                 6.085e-02   8.266e-05

----------------------------Description of solution----------------------------

                                       pH  =   7.384      Charge balance
                                       pe  =   4.000      Adjusted to redox equilibrium
                        Activity of water  =   0.736
                 Ionic strength (mol/kgw)  =   8.054e+00
                       Mass of water (kg)  =   1.358e-03
                 Total alkalinity (eq/kg)  =   4.182e-07
                         Temperature (°C)  = -31.10
                  Electrical balance (eq)  =   9.999e-06
 Percent error, 100*(Cat-|An|)/(Cat+|An|)  =   0.06
                               Iterations  =  57 (1461 overall)
                         Gamma iterations  =   1
                      Osmotic coefficient  =   1.82460
                                  Total H  = 1.508032e-01
                                  Total O  = 7.573224e-02

----------------------------Distribution of species----------------------------

                                                    Unscaled  Unscaled
                                Unscaled       Log       Log       Log    mole V
   Species          Molality    Activity  Molality  Activity     Gamma    cm³/mol

   OH-             5.849e-07   1.784e-07    -6.233    -6.749    -0.516     (0)  
   H+              1.667e-07   4.129e-08    -6.778    -7.384    -0.606      0.00
   H2O             5.551e+01   7.365e-01     1.744    -0.133     0.000     18.33
Cl            5.661e+00
   Cl-             5.661e+00   1.593e+01     0.753     1.202     0.449     (0)  
Mg            2.206e+00
   Mg+2            2.206e+00   3.746e+00     0.344     0.574     0.230     (0)  
Na            1.378e+00
   Na+             1.378e+00   6.204e-01     0.139    -0.207    -0.347     (0)  
S(6)          6.085e-02
   SO4-2           6.085e-02   2.390e-03    -1.216    -2.622    -1.406     (0)  

------------------------------Saturation indices-------------------------------

  Phase               SI** log IAP   log K(242 K,   1 atm)

  Bischofite       -2.86      2.18    5.04  MgCl2:6H2O
  Bloedite         -1.79     -5.62   -3.82  Na2SO4:MgSO4:4H2O
  Epsomite         -0.50     -2.98   -2.47  MgSO4:7H2O
  Halite           -0.28      0.99    1.28  NaCl
  Hexahydrite      -1.16     -2.85   -1.68  MgSO4:6H2O
  Hydrohalite      -0.01      0.73    0.73  NaCl:2H2O
  Ice(s)            0.00     -0.13   -0.13  H2O
  Kieserite        -3.69     -2.18    1.51  MgSO4:H2O
  Meridianiite      0.00     -3.51   -3.51  MgSO4:11H2O
  MgCl2:12H2O      -0.37      1.38    1.76  MgCl2:12H2O
  MgCl2:8H2O       -1.63      1.92    3.55  MgCl2:8H2O
  Mirabilite        0.00     -4.36   -4.36  Na2SO4:10H2O
  Na2SO4:7H2O      -0.98     -3.97   -2.99  Na2SO4:7H2O
  Pentahydrite     -1.72     -2.71   -0.99  MgSO4:5H2O
  Starkeyite       -2.35     -2.58   -0.23  MgSO4:4H2O
  Thenardite       -2.52     -3.04   -0.52  Na2SO4

**For a gas, SI = log10(fugacity). Fugacity = pressure * phi / 1 atm.
  For ideal gases, phi = 1.

Reaction step 313.

Using solution 1.	
Using pure phase assemblage 1.	
Using temperature 1.	

-------------------------------Phase assemblage--------------------------------

                                                      Moles in assemblage
Phase               SI  log IAP  log K(T, P)   Initial       Final       Delta

Anhydrite            Element not present.    0.000e+00           0   0.000e+00
Antarcticite         Element not present.    0.000e+00           0   0.000e+00
Arcanite             Element not present.    0.000e+00           0   0.000e+00
Bassanite            Element not present.    0.000e+00           0   0.000e+00
Bischofite       -2.86     2.19      5.04    0.000e+00           0   0.000e+00
Bloedite         -1.79    -5.62     -3.83    0.000e+00           0   0.000e+00
Carnallite           Element not present.    0.000e+00           0   0.000e+00
Epsomite         -0.50    -2.98     -2.48    0.000e+00           0   0.000e+00
Glaserite            Element not present.    0.000e+00           0   0.000e+00
Glauberite           Element not present.    0.000e+00           0   0.000e+00
Gypsum               Element not present.    0.000e+00           0   0.000e+00
Halite           -0.28     1.00      1.27    0.000e+00           0   0.000e+00
Hexahydrite      -1.16    -2.85     -1.68    0.000e+00           0   0.000e+00
Hydrohalite      -0.00     0.73      0.73    0.000e+00           0   0.000e+00
Ice(s)            0.00    -0.13     -0.13    0.000e+00   5.502e+01   5.502e+01
Kainite              Element not present.    0.000e+00           0   0.000e+00
Kieserite        -3.69    -2.18      1.51    0.000e+00           0   0.000e+00
Labile_Salt          Element not present.    0.000e+00           0   0.000e+00
Langbeinite          Element not present.    0.000e+00           0   0.000e+00
Leonite              Element not present.    0.000e+00           0   0.000e+00
Meridianiite      0.00    -3.51     -3.51    0.000e+00   2.778e-02   2.778e-02
MgCl2:12H2O      -0.37     1.39      1.75    0.000e+00           0   0.000e+00
MgCl2:8H2O       -1.62     1.92      3.55    0.000e+00           0   0.000e+00
Mirabilite        0.00    -4.37     -4.37    0.000e+00   1.060e-02   1.060e-02
Na2SO4:7H2O      -0.98    -3.97     -2.99    0.000e+00           0   0.000e+00
Pentahydrite     -1.72    -2.71     -0.99    0.000e+00           0   0.000e+00
Picromerite          Element not present.    0.000e+00           0   0.000e+00
Polyhalite           Element not present.    0.000e+00           0   0.000e+00
Starkeyite       -2.35    -2.58     -0.23    0.000e+00           0   0.000e+00
Sylvite              Element not present.    0.000e+00           0   0.000e+00
Syngenite            Element not present.    0.000e+00           0   0.000e+00
Tachyhydrite         Element not present.    0.000e+00           0   0.000e+00
Thenardite       -2.52    -3.04     -0.52    0.000e+00           0   0.000e+00

-----------------------------Solution composition------------------------------

	Elements           Molality       Moles

	Cl                5.673e+00   7.690e-03
	Mg                2.209e+00   2.995e-03
	Na                1.382e+00   1.874e-03
	S                 6.024e-02   8.166e-05

----------------------------Description of solution----------------------------

                                       pH  =   7.385      Charge balance
                                       pe  =   4.000      Adjusted to redox equilibrium
                        Activity of water  =   0.736
                 Ionic strength (mol/kgw)  =   8.066e+00
                       Mass of water (kg)  =   1.356e-03
                 Total alkalinity (eq/kg)  =   4.191e-07
                         Temperature (°C)  = -31.20
                  Electrical balance (eq)  =   9.999e-06
 Percent error, 100*(Cat-|An|)/(Cat+|An|)  =   0.06
                               Iterations  =  57 (1461 overall)
                         Gamma iterations  =   1
                      Osmotic coefficient  =   1.82693
                                  Total H  = 1.504933e-01
                                  Total O  = 7.557328e-02

----------------------------Distribution of species----------------------------

                                                    Unscaled  Unscaled
                                Unscaled       Log       Log       Log    mole V
   Species          Molality    Activity  Molality  Activity     Gamma    cm³/mol

   OH-             5.854e-07   1.786e-07    -6.233    -6.748    -0.516     (0)  
   H+              1.663e-07   4.120e-08    -6.779    -7.385    -0.606      0.00
   H2O             5.551e+01   7.357e-01     1.744    -0.133     0.000     18.33
Cl            5.673e+00
   Cl-             5.673e+00   1.601e+01     0.754     1.204     0.450     (0)  
Mg            2.209e+00
   Mg+2            2.209e+00   3.786e+00     0.344     0.578     0.234     (0)  
Na            1.382e+00
   Na+             1.382e+00   6.220e-01     0.141    -0.206    -0.347     (0)  
S(6)          6.024e-02
   SO4-2           6.024e-02   2.366e-03    -1.220    -2.626    -1.406     (0)  

------------------------------Saturation indices-------------------------------

  Phase               SI** log IAP   log K(241 K,   1 atm)

  Bischofite       -2.86      2.19    5.04  MgCl2:6H2O
  Bloedite         -1.79     -5.62   -3.83  Na2SO4:MgSO4:4H2O
  Epsomite         -0.50     -2.98   -2.48  MgSO4:7H2O
  Halite           -0.28      1.00    1.27  NaCl
  Hexahydrite      -1.16     -2.85   -1.68  MgSO4:6H2O
  Hydrohalite      -0.00      0.73    0.73  NaCl:2H2O
  Ice(s)            0.00     -0.13   -0.13  H2O
  Kieserite        -3.69     -2.18    1.51  MgSO4:H2O
  Meridianiite      0.00     -3.51   -3.51  MgSO4:11H2O
  MgCl2:12H2O      -0.37      1.39    1.75  MgCl2:12H2O
  MgCl2:8H2O       -1.62      1.92    3.55  MgCl2:8H2O
  Mirabilite        0.00     -4.37   -4.37  Na2SO4:10H2O
  Na2SO4:7H2O      -0.98     -3.97   -2.99  Na2SO4:7H2O
  Pentahydrite     -1.72     -2.71   -0.99  MgSO4:5H2O
  Starkeyite       -2.35     -2.58   -0.23  MgSO4:4H2O
  Thenardite       -2.52     -3.04   -0.52  Na2SO4

**For a gas, SI = log10(fugacity). Fugacity = pressure * phi / 1 atm.
  For ideal gases, phi = 1.

Reaction step 314.

ERROR:               Ice(s) Pure phase has not converged. 	Residual: -3.065724e-01

Using solution 1.	
Using pure phase assemblage 1.	
Using temperature 1.	

-------------------------------Phase assemblage--------------------------------

                                                      Moles in assemblage
Phase               SI  log IAP  log K(T, P)   Initial       Final       Delta

Anhydrite            Element not present.    0.000e+00           0   0.000e+00
Antarcticite         Element not present.    0.000e+00           0   0.000e+00
Arcanite             Element not present.    0.000e+00           0   0.000e+00
Bassanite            Element not present.    0.000e+00           0   0.000e+00
Bischofite      -14.39    -9.35      5.04    0.000e+00           0   0.000e+00
Bloedite         -8.78   -12.62     -3.83    0.000e+00           0   0.000e+00
Carnallite           Element not present.    0.000e+00           0   0.000e+00
Epsomite         -4.76    -7.24     -2.48    0.000e+00           0   0.000e+00
Glaserite            Element not present.    0.000e+00           0   0.000e+00
Glauberite           Element not present.    0.000e+00           0   0.000e+00
Gypsum               Element not present.    0.000e+00           0   0.000e+00
Halite           -5.02    -3.75      1.27    0.000e+00           0   0.000e+00
Hexahydrite      -5.55    -7.24     -1.68    0.000e+00           0   0.000e+00
Hydrohalite      -4.48    -3.75      0.73    0.000e+00           0   0.000e+00
Ice(s)            0.13    -0.00     -0.13    0.000e+00           0   0.000e+00
Kainite              Element not present.    0.000e+00           0   0.000e+00
Kieserite        -8.75    -7.23      1.51    0.000e+00           0   0.000e+00
Labile_Salt          Element not present.    0.000e+00           0   0.000e+00
Langbeinite          Element not present.    0.000e+00           0   0.000e+00
Leonite              Element not present.    0.000e+00           0   0.000e+00
Meridianiite     -3.72    -7.24     -3.52    0.000e+00   3.076e-02   3.076e-02
MgCl2:12H2O     -11.10    -9.35      1.75    0.000e+00           0   0.000e+00
MgCl2:8H2O      -12.89    -9.35      3.54    0.000e+00           0   0.000e+00
Mirabilite       -1.01    -5.38     -4.38    0.000e+00           0   0.000e+00
Na2SO4:7H2O      -2.38    -5.38     -3.00    0.000e+00           0   0.000e+00
Pentahydrite     -6.25    -7.24     -0.99    0.000e+00           0   0.000e+00
Picromerite          Element not present.    0.000e+00           0   0.000e+00
Polyhalite           Element not present.    0.000e+00           0   0.000e+00
Starkeyite       -7.01    -7.24     -0.23    0.000e+00           0   0.000e+00
Sylvite              Element not present.    0.000e+00           0   0.000e+00
Syngenite            Element not present.    0.000e+00           0   0.000e+00
Tachyhydrite         Element not present.    0.000e+00           0   0.000e+00
Thenardite       -4.86    -5.38     -0.52    0.000e+00           0   0.000e+00

-----------------------------Solution composition------------------------------

	Elements           Molality       Moles

	Cl                7.737e-03   7.690e-03
	Mg                7.533e-06   7.487e-06
	Na                2.322e-02   2.308e-02
	S                 7.745e-03   7.697e-03

----------------------------Description of solution----------------------------

                                       pH  =   7.002      Charge balance
                                       pe  =   4.000      Adjusted to redox equilibrium
                        Activity of water  =   0.999
                 Ionic strength (mol/kgw)  =   3.098e-02
                       Mass of water (kg)  =   9.939e-01
                 Total alkalinity (eq/kg)  =   5.711e-10
                         Temperature (°C)  = -31.30
                  Electrical balance (eq)  =   9.999e-06
 Percent error, 100*(Cat-|An|)/(Cat+|An|)  =   0.02
                               Iterations  = 401 (3209 overall)
                         Gamma iterations  =   0
                      Osmotic coefficient  =   1.83140
                                  Total H  = 1.103418e+02
                                  Total O  = 5.520170e+01

----------------------------Distribution of species----------------------------

                                                    Unscaled  Unscaled
                                Unscaled       Log       Log       Log    mole V
   Species          Molality    Activity  Molality  Activity     Gamma    cm³/mol

   OH-             1.002e-07   1.002e-07    -6.999    -6.999     0.000     (0)  
   H+              9.965e-08   9.965e-08    -7.002    -7.002     0.000      0.00
   H2O             5.551e+01   9.987e-01     1.744    -0.001     0.000     18.33
Cl            7.737e-03
   Cl-             7.737e-03   7.737e-03    -2.111    -2.111     0.000     (0)  
Mg            7.533e-06
   Mg+2            7.533e-06   7.533e-06    -5.123    -5.123     0.000     (0)  
Na            2.322e-02
   Na+             2.322e-02   2.322e-02    -1.634    -1.634     0.000     (0)  
S(6)          7.745e-03
   SO4-2           7.745e-03   7.745e-03    -2.111    -2.111     0.000     (0)  

------------------------------Saturation indices-------------------------------

  Phase               SI** log IAP   log K(241 K,   1 atm)

  Bischofite      -14.39     -9.35    5.04  MgCl2:6H2O
  Bloedite         -8.78    -12.62   -3.83  Na2SO4:MgSO4:4H2O
  Epsomite         -4.76     -7.24   -2.48  MgSO4:7H2O
  Halite           -5.02     -3.75    1.27  NaCl
  Hexahydrite      -5.55     -7.24   -1.68  MgSO4:6H2O
  Hydrohalite      -4.48     -3.75    0.73  NaCl:2H2O
  Ice(s)            0.13     -0.00   -0.13  H2O
  Kieserite        -8.75     -7.23    1.51  MgSO4:H2O
  Meridianiite     -3.72     -7.24   -3.52  MgSO4:11H2O
  MgCl2:12H2O     -11.10     -9.35    1.75  MgCl2:12H2O
  MgCl2:8H2O      -12.89     -9.35    3.54  MgCl2:8H2O
  Mirabilite       -1.01     -5.38   -4.38  Na2SO4:10H2O
  Na2SO4:7H2O      -2.38     -5.38   -3.00  Na2SO4:7H2O
  Pentahydrite     -6.25     -7.24   -0.99  MgSO4:5H2O
  Starkeyite       -7.01     -7.24   -0.23  MgSO4:4H2O
  Thenardite       -4.86     -5.38   -0.52  Na2SO4

**For a gas, SI = log10(fugacity). Fugacity = pressure * phi / 1 atm.
  For ideal gases, phi = 1.

ERROR: Numerical method failed on all combinations of convergence parameters, cell/soln/mix 1
--------------------------------
End of Run after 53.239 Seconds.
--------------------------------

