   Input file: C:\Users\nswol\Dropbox\Graduate School\Research\UTIG\Projects\2021-Wolfenbarger-Bulk Properties\PHREEQC\frezchem\Binary\NaCl_1ppt.pqi
  Output file: C:\Users\nswol\Dropbox\Graduate School\Research\UTIG\Projects\2021-Wolfenbarger-Bulk Properties\PHREEQC\frezchem\Binary\NaCl_1ppt.pqo
Database file: C:\Program Files (x86)\USGS\Phreeqc Interactive 3.7.3-15968\database\frezchem.dat

------------------
Reading data base.
------------------

	PITZER
	SOLUTION_MASTER_SPECIES
	SOLUTION_SPECIES
	PHASES
	PITZER
	EXCHANGE_MASTER_SPECIES
	EXCHANGE_SPECIES
	SURFACE_MASTER_SPECIES
	SURFACE_SPECIES
	END
------------------------------------
Reading input data for simulation 1.
------------------------------------

	DATABASE C:\Program Files (x86)\USGS\Phreeqc Interactive 3.7.3-15968\database\frezchem.dat
	TITLE NaCl (1 ppt) - frezchem.dat
	SOLUTION
		units	mol/kgw
			Na	0.0171	
			Cl	0.0171	
	EQUILIBRIUM_PHASES
		Anhydrite		0.0	0.0
		Antarcticite	0.0	0.0
		Aphthitalite	0.0	0.0
		Aragonite		0.0	0.0
		Arcanite		0.0	0.0
		Bischofite		0.0	0.0
		Bloedite		0.0	0.0
		Calcite		0.0	0.0
		Carnallite		0.0	0.0
		Dolomite		0.0	0.0
		Epsomite		0.0	0.0
		Gypsum		0.0	0.0
		Halite		0.0	0.0
		Hexahydrite		0.0	0.0
		Hydrohalite		0.0	0.0
		Hydromagnesite	0.0	0.0
		Ikaite		0.0	0.0
		Kalicinite		0.0	0.0
		Kieserite		0.0	0.0
		Landsfordite	0.0	0.0
		Magnesite		0.0	0.0
		Meridianite		0.0	0.0
		MgCl2:8H2O		0.0	0.0
		MgCl2:12H2O		0.0	0.0
		Mirabilite		0.0	0.0
		Na2CO3:7H2O		0.0	0.0
		Nahcolite		0.0	0.0
		Natron		0.0	0.0
		Nesquehonite	0.0	0.0
		Picromerite		0.0	0.0
		Sylvite		0.0	0.0
		Tachyhydrite	0.0	0.0
		Thenardite		0.0	0.0
		Trona			0.0	0.0
		Vaterite		0.0	0.0
		Ice(s) 		0.0	0.0
	REACTION_TEMPERATURE
	        0 -30.0 in 301 steps
	END
-----
TITLE
-----

 NaCl (1 ppt) - frezchem.dat

-------------------------------------------
Beginning of initial solution calculations.
-------------------------------------------

Initial solution 1.	

-----------------------------Solution composition------------------------------

	Elements           Molality       Moles

	Cl                1.710e-02   1.710e-02
	Na                1.710e-02   1.710e-02

----------------------------Description of solution----------------------------

                                       pH  =   7.000    
                                       pe  =   4.000    
      Specific Conductance (µS/cm,  25°C)  = 1973
                          Density (g/cm³)  =   0.99775
                               Volume (L)  =   1.00325
                        Activity of water  =   0.999
                 Ionic strength (mol/kgw)  =   1.710e-02
                       Mass of water (kg)  =   1.000e+00
                 Total alkalinity (eq/kg)  =   2.465e-09
                         Temperature (°C)  =  25.00
                  Electrical balance (eq)  =  -2.465e-09
 Percent error, 100*(Cat-|An|)/(Cat+|An|)  =  -0.00
                               Iterations  =   4
                         Gamma iterations  =   3
                      Osmotic coefficient  =   0.96075
                         Density of water  =   0.99704
                                  Total H  = 1.110186e+02
                                  Total O  = 5.550930e+01

----------------------------Distribution of species----------------------------

                                                    Unscaled  Unscaled
                                Unscaled       Log       Log       Log    mole V
   Species          Molality    Activity  Molality  Activity     Gamma    cm³/mol

   OH-             1.160e-07   1.011e-07    -6.936    -6.995    -0.059     -4.00
   H+              1.135e-07   1.000e-07    -6.945    -7.000    -0.055      0.00
   H2O             5.551e+01   9.994e-01     1.744    -0.000     0.000     18.07
Cl            1.710e-02
   Cl-             1.710e-02   1.503e-02    -1.767    -1.823    -0.056     18.17
Na            1.710e-02
   Na+             1.710e-02   1.503e-02    -1.767    -1.823    -0.056     -1.34

------------------------------Saturation indices-------------------------------

  Phase               SI** log IAP   log K(298 K,   1 atm)

  Halite           -5.22     -3.65    1.58  NaCl
  Hydrohalite      -5.17     -3.65    1.52  NaCl:2H2O
  Ice(s)           -0.10     -0.00    0.10  H2O

**For a gas, SI = log10(fugacity). Fugacity = pressure * phi / 1 atm.
  For ideal gases, phi = 1.

-----------------------------------------
Beginning of batch-reaction calculations.
-----------------------------------------

Reaction step 1.

WARNING: Element Ca is contained in Anhydrite (which has 0.0 mass),	
but is not in solution or other phases.
WARNING: Element S is contained in Anhydrite (which has 0.0 mass),	
but is not in solution or other phases.
WARNING: Element Ca is contained in Antarcticite (which has 0.0 mass),	
but is not in solution or other phases.
WARNING: Element K is contained in Aphthitalite (which has 0.0 mass),	
but is not in solution or other phases.
WARNING: Element S is contained in Aphthitalite (which has 0.0 mass),	
but is not in solution or other phases.
WARNING: Element C is contained in Aragonite (which has 0.0 mass),	
but is not in solution or other phases.
WARNING: Element Ca is contained in Aragonite (which has 0.0 mass),	
but is not in solution or other phases.
WARNING: Element K is contained in Arcanite (which has 0.0 mass),	
but is not in solution or other phases.
WARNING: Element S is contained in Arcanite (which has 0.0 mass),	
but is not in solution or other phases.
WARNING: Element Mg is contained in Bischofite (which has 0.0 mass),	
but is not in solution or other phases.
WARNING: Element Mg is contained in Bloedite (which has 0.0 mass),	
but is not in solution or other phases.
WARNING: Element S is contained in Bloedite (which has 0.0 mass),	
but is not in solution or other phases.
WARNING: Element C is contained in Calcite (which has 0.0 mass),	
but is not in solution or other phases.
WARNING: Element Ca is contained in Calcite (which has 0.0 mass),	
but is not in solution or other phases.
WARNING: Element K is contained in Carnallite (which has 0.0 mass),	
but is not in solution or other phases.
WARNING: Element Mg is contained in Carnallite (which has 0.0 mass),	
but is not in solution or other phases.
WARNING: Element C is contained in Dolomite (which has 0.0 mass),	
but is not in solution or other phases.
WARNING: Element Ca is contained in Dolomite (which has 0.0 mass),	
but is not in solution or other phases.
WARNING: Element Mg is contained in Dolomite (which has 0.0 mass),	
but is not in solution or other phases.
WARNING: Element Mg is contained in Epsomite (which has 0.0 mass),	
but is not in solution or other phases.
WARNING: Element S is contained in Epsomite (which has 0.0 mass),	
but is not in solution or other phases.
WARNING: Element Ca is contained in Gypsum (which has 0.0 mass),	
but is not in solution or other phases.
WARNING: Element S is contained in Gypsum (which has 0.0 mass),	
but is not in solution or other phases.
WARNING: Element Mg is contained in Hexahydrite (which has 0.0 mass),	
but is not in solution or other phases.
WARNING: Element S is contained in Hexahydrite (which has 0.0 mass),	
but is not in solution or other phases.
WARNING: Element C is contained in Hydromagnesite (which has 0.0 mass),	
but is not in solution or other phases.
WARNING: Element Mg is contained in Hydromagnesite (which has 0.0 mass),	
but is not in solution or other phases.
WARNING: Element C is contained in Ikaite (which has 0.0 mass),	
but is not in solution or other phases.
WARNING: Element Ca is contained in Ikaite (which has 0.0 mass),	
but is not in solution or other phases.
WARNING: Element C is contained in Kalicinite (which has 0.0 mass),	
but is not in solution or other phases.
WARNING: Element K is contained in Kalicinite (which has 0.0 mass),	
but is not in solution or other phases.
WARNING: Element Mg is contained in Kieserite (which has 0.0 mass),	
but is not in solution or other phases.
WARNING: Element S is contained in Kieserite (which has 0.0 mass),	
but is not in solution or other phases.
WARNING: Element C is contained in Landsfordite (which has 0.0 mass),	
but is not in solution or other phases.
WARNING: Element Mg is contained in Landsfordite (which has 0.0 mass),	
but is not in solution or other phases.
WARNING: Element C is contained in Magnesite (which has 0.0 mass),	
but is not in solution or other phases.
WARNING: Element Mg is contained in Magnesite (which has 0.0 mass),	
but is not in solution or other phases.
WARNING: Element Mg is contained in Meridianite (which has 0.0 mass),	
but is not in solution or other phases.
WARNING: Element S is contained in Meridianite (which has 0.0 mass),	
but is not in solution or other phases.
WARNING: Element Mg is contained in MgCl2:12H2O (which has 0.0 mass),	
but is not in solution or other phases.
WARNING: Element Mg is contained in MgCl2:8H2O (which has 0.0 mass),	
but is not in solution or other phases.
WARNING: Element S is contained in Mirabilite (which has 0.0 mass),	
but is not in solution or other phases.
WARNING: Element C is contained in Na2CO3:7H2O (which has 0.0 mass),	
but is not in solution or other phases.
WARNING: Element C is contained in Nahcolite (which has 0.0 mass),	
but is not in solution or other phases.
WARNING: Element C is contained in Natron (which has 0.0 mass),	
but is not in solution or other phases.
WARNING: Element C is contained in Nesquehonite (which has 0.0 mass),	
but is not in solution or other phases.
WARNING: Element Mg is contained in Nesquehonite (which has 0.0 mass),	
but is not in solution or other phases.
WARNING: Element K is contained in Picromerite (which has 0.0 mass),	
but is not in solution or other phases.
WARNING: Element Mg is contained in Picromerite (which has 0.0 mass),	
but is not in solution or other phases.
WARNING: Element S is contained in Picromerite (which has 0.0 mass),	
but is not in solution or other phases.
WARNING: Element K is contained in Sylvite (which has 0.0 mass),	
but is not in solution or other phases.
WARNING: Element Ca is contained in Tachyhydrite (which has 0.0 mass),	
but is not in solution or other phases.
WARNING: Element Mg is contained in Tachyhydrite (which has 0.0 mass),	
but is not in solution or other phases.
WARNING: Element S is contained in Thenardite (which has 0.0 mass),	
but is not in solution or other phases.
WARNING: Element C is contained in Trona (which has 0.0 mass),	
but is not in solution or other phases.
WARNING: Element C is contained in Vaterite (which has 0.0 mass),	
but is not in solution or other phases.
WARNING: Element Ca is contained in Vaterite (which has 0.0 mass),	
but is not in solution or other phases.
Using solution 1.	
Using pure phase assemblage 1.	
Using temperature 1.	

-------------------------------Phase assemblage--------------------------------

                                                      Moles in assemblage
Phase               SI  log IAP  log K(T, P)   Initial       Final       Delta

Anhydrite            Element not present.    0.000e+00           0   0.000e+00
Antarcticite         Element not present.    0.000e+00           0   0.000e+00
Aphthitalite         Element not present.    0.000e+00           0   0.000e+00
Aragonite            Element not present.    0.000e+00           0   0.000e+00
Arcanite             Element not present.    0.000e+00           0   0.000e+00
Bischofite           Element not present.    0.000e+00           0   0.000e+00
Bloedite             Element not present.    0.000e+00           0   0.000e+00
Calcite              Element not present.    0.000e+00           0   0.000e+00
Carnallite           Element not present.    0.000e+00           0   0.000e+00
Dolomite             Element not present.    0.000e+00           0   0.000e+00
Epsomite             Element not present.    0.000e+00           0   0.000e+00
Gypsum               Element not present.    0.000e+00           0   0.000e+00
Halite           -5.14    -3.64      1.50    0.000e+00           0   0.000e+00
Hexahydrite          Element not present.    0.000e+00           0   0.000e+00
Hydrohalite      -4.90    -3.64      1.25    0.000e+00           0   0.000e+00
Hydromagnesite       Element not present.    0.000e+00           0   0.000e+00
Ice(s)           -0.00    -0.00      0.00    0.000e+00           0   0.000e+00
Ikaite               Element not present.    0.000e+00           0   0.000e+00
Kalicinite           Element not present.    0.000e+00           0   0.000e+00
Kieserite            Element not present.    0.000e+00           0   0.000e+00
Landsfordite         Element not present.    0.000e+00           0   0.000e+00
Magnesite            Element not present.    0.000e+00           0   0.000e+00
Meridianite          Element not present.    0.000e+00           0   0.000e+00
MgCl2:12H2O          Element not present.    0.000e+00           0   0.000e+00
MgCl2:8H2O           Element not present.    0.000e+00           0   0.000e+00
Mirabilite           Element not present.    0.000e+00           0   0.000e+00
Na2CO3:7H2O          Element not present.    0.000e+00           0   0.000e+00
Nahcolite            Element not present.    0.000e+00           0   0.000e+00
Natron               Element not present.    0.000e+00           0   0.000e+00
Nesquehonite         Element not present.    0.000e+00           0   0.000e+00
Picromerite          Element not present.    0.000e+00           0   0.000e+00
Sylvite              Element not present.    0.000e+00           0   0.000e+00
Tachyhydrite         Element not present.    0.000e+00           0   0.000e+00
Thenardite           Element not present.    0.000e+00           0   0.000e+00
Trona                Element not present.    0.000e+00           0   0.000e+00
Vaterite             Element not present.    0.000e+00           0   0.000e+00

-----------------------------Solution composition------------------------------

	Elements           Molality       Moles

	Cl                1.710e-02   1.710e-02
	Na                1.710e-02   1.710e-02

----------------------------Description of solution----------------------------

                                       pH  =   7.480      Charge balance
                                       pe  =   4.000      Adjusted to redox equilibrium
      Specific Conductance (µS/cm,   0°C)  = 983
                          Density (g/cm³)  =   1.00061
                               Volume (L)  =   1.00038
                        Activity of water  =   0.999
                 Ionic strength (mol/kgw)  =   1.710e-02
                       Mass of water (kg)  =   1.000e+00
                 Total alkalinity (eq/kg)  =   2.465e-09
                         Temperature (°C)  =   0.00
                  Electrical balance (eq)  =  -2.465e-09
 Percent error, 100*(Cat-|An|)/(Cat+|An|)  =  -0.00
                               Iterations  =   5
                         Gamma iterations  =   2
                      Osmotic coefficient  =   0.96151
                         Density of water  =   0.99984
                                  Total H  = 1.110186e+02
                                  Total O  = 5.550930e+01

----------------------------Distribution of species----------------------------

                                                    Unscaled  Unscaled
                                Unscaled       Log       Log       Log    mole V
   Species          Molality    Activity  Molality  Activity     Gamma    cm³/mol

   OH-             3.991e-08   3.480e-08    -7.399    -7.458    -0.059     -6.08
   H+              3.744e-08   3.314e-08    -7.427    -7.480    -0.053      0.00
   H2O             5.551e+01   9.994e-01     1.744    -0.000     0.000     18.02
Cl            1.710e-02
   Cl-             1.710e-02   1.508e-02    -1.767    -1.822    -0.055     16.51
Na            1.710e-02
   Na+             1.710e-02   1.508e-02    -1.767    -1.822    -0.055     -3.38

------------------------------Saturation indices-------------------------------

  Phase               SI** log IAP   log K(273 K,   1 atm)

  Halite           -5.14     -3.64    1.50  NaCl
  Hydrohalite      -4.90     -3.64    1.25  NaCl:2H2O
  Ice(s)           -0.00     -0.00    0.00  H2O

**For a gas, SI = log10(fugacity). Fugacity = pressure * phi / 1 atm.
  For ideal gases, phi = 1.

Reaction step 2.

WARNING: Element Ca is contained in Anhydrite (which has 0.0 mass),	
but is not in solution or other phases.
WARNING: Element S is contained in Anhydrite (which has 0.0 mass),	
but is not in solution or other phases.
WARNING: Element Ca is contained in Antarcticite (which has 0.0 mass),	
but is not in solution or other phases.
WARNING: Element K is contained in Aphthitalite (which has 0.0 mass),	
but is not in solution or other phases.
WARNING: Element S is contained in Aphthitalite (which has 0.0 mass),	
but is not in solution or other phases.
WARNING: Element C is contained in Aragonite (which has 0.0 mass),	
but is not in solution or other phases.
WARNING: Element Ca is contained in Aragonite (which has 0.0 mass),	
but is not in solution or other phases.
WARNING: Element K is contained in Arcanite (which has 0.0 mass),	
but is not in solution or other phases.
WARNING: Element S is contained in Arcanite (which has 0.0 mass),	
but is not in solution or other phases.
WARNING: Element Mg is contained in Bischofite (which has 0.0 mass),	
but is not in solution or other phases.
WARNING: Element Mg is contained in Bloedite (which has 0.0 mass),	
but is not in solution or other phases.
WARNING: Element S is contained in Bloedite (which has 0.0 mass),	
but is not in solution or other phases.
WARNING: Element C is contained in Calcite (which has 0.0 mass),	
but is not in solution or other phases.
WARNING: Element Ca is contained in Calcite (which has 0.0 mass),	
but is not in solution or other phases.
WARNING: Element K is contained in Carnallite (which has 0.0 mass),	
but is not in solution or other phases.
WARNING: Element Mg is contained in Carnallite (which has 0.0 mass),	
but is not in solution or other phases.
WARNING: Element C is contained in Dolomite (which has 0.0 mass),	
but is not in solution or other phases.
WARNING: Element Ca is contained in Dolomite (which has 0.0 mass),	
but is not in solution or other phases.
WARNING: Element Mg is contained in Dolomite (which has 0.0 mass),	
but is not in solution or other phases.
WARNING: Element Mg is contained in Epsomite (which has 0.0 mass),	
but is not in solution or other phases.
WARNING: Element S is contained in Epsomite (which has 0.0 mass),	
but is not in solution or other phases.
WARNING: Element Ca is contained in Gypsum (which has 0.0 mass),	
but is not in solution or other phases.
WARNING: Element S is contained in Gypsum (which has 0.0 mass),	
but is not in solution or other phases.
WARNING: Element Mg is contained in Hexahydrite (which has 0.0 mass),	
but is not in solution or other phases.
WARNING: Element S is contained in Hexahydrite (which has 0.0 mass),	
but is not in solution or other phases.
WARNING: Element C is contained in Hydromagnesite (which has 0.0 mass),	
but is not in solution or other phases.
WARNING: Element Mg is contained in Hydromagnesite (which has 0.0 mass),	
but is not in solution or other phases.
WARNING: Element C is contained in Ikaite (which has 0.0 mass),	
but is not in solution or other phases.
WARNING: Element Ca is contained in Ikaite (which has 0.0 mass),	
but is not in solution or other phases.
WARNING: Element C is contained in Kalicinite (which has 0.0 mass),	
but is not in solution or other phases.
WARNING: Element K is contained in Kalicinite (which has 0.0 mass),	
but is not in solution or other phases.
WARNING: Element Mg is contained in Kieserite (which has 0.0 mass),	
but is not in solution or other phases.
WARNING: Element S is contained in Kieserite (which has 0.0 mass),	
but is not in solution or other phases.
WARNING: Element C is contained in Landsfordite (which has 0.0 mass),	
but is not in solution or other phases.
WARNING: Element Mg is contained in Landsfordite (which has 0.0 mass),	
but is not in solution or other phases.
WARNING: Element C is contained in Magnesite (which has 0.0 mass),	
but is not in solution or other phases.
WARNING: Element Mg is contained in Magnesite (which has 0.0 mass),	
but is not in solution or other phases.
WARNING: Element Mg is contained in Meridianite (which has 0.0 mass),	
but is not in solution or other phases.
WARNING: Element S is contained in Meridianite (which has 0.0 mass),	
but is not in solution or other phases.
WARNING: Element Mg is contained in MgCl2:12H2O (which has 0.0 mass),	
but is not in solution or other phases.
WARNING: Element Mg is contained in MgCl2:8H2O (which has 0.0 mass),	
but is not in solution or other phases.
WARNING: Element S is contained in Mirabilite (which has 0.0 mass),	
but is not in solution or other phases.
WARNING: Element C is contained in Na2CO3:7H2O (which has 0.0 mass),	
but is not in solution or other phases.
Using solution 1.	
Using pure phase assemblage 1.	
Using temperature 1.	

-------------------------------Phase assemblage--------------------------------

                                                      Moles in assemblage
Phase               SI  log IAP  log K(T, P)   Initial       Final       Delta

Anhydrite            Element not present.    0.000e+00           0   0.000e+00
Antarcticite         Element not present.    0.000e+00           0   0.000e+00
Aphthitalite         Element not present.    0.000e+00           0   0.000e+00
Aragonite            Element not present.    0.000e+00           0   0.000e+00
Arcanite             Element not present.    0.000e+00           0   0.000e+00
Bischofite           Element not present.    0.000e+00           0   0.000e+00
Bloedite             Element not present.    0.000e+00           0   0.000e+00
Calcite              Element not present.    0.000e+00           0   0.000e+00
Carnallite           Element not present.    0.000e+00           0   0.000e+00
Dolomite             Element not present.    0.000e+00           0   0.000e+00
Epsomite             Element not present.    0.000e+00           0   0.000e+00
Gypsum               Element not present.    0.000e+00           0   0.000e+00
Halite           -4.75    -3.25      1.50    0.000e+00           0   0.000e+00
Hexahydrite          Element not present.    0.000e+00           0   0.000e+00
Hydrohalite      -4.51    -3.25      1.25    0.000e+00           0   0.000e+00
Hydromagnesite       Element not present.    0.000e+00           0   0.000e+00
Ice(s)            0.00    -0.00     -0.00    0.000e+00   2.110e+01   2.110e+01
Ikaite               Element not present.    0.000e+00           0   0.000e+00
Kalicinite           Element not present.    0.000e+00           0   0.000e+00
Kieserite            Element not present.    0.000e+00           0   0.000e+00
Landsfordite         Element not present.    0.000e+00           0   0.000e+00
Magnesite            Element not present.    0.000e+00           0   0.000e+00
Meridianite          Element not present.    0.000e+00           0   0.000e+00
MgCl2:12H2O          Element not present.    0.000e+00           0   0.000e+00
MgCl2:8H2O           Element not present.    0.000e+00           0   0.000e+00
Mirabilite           Element not present.    0.000e+00           0   0.000e+00
Na2CO3:7H2O          Element not present.    0.000e+00           0   0.000e+00
Nahcolite            Element not present.    0.000e+00           0   0.000e+00
Natron               Element not present.    0.000e+00           0   0.000e+00
Nesquehonite         Element not present.    0.000e+00           0   0.000e+00
Picromerite          Element not present.    0.000e+00           0   0.000e+00
Sylvite              Element not present.    0.000e+00           0   0.000e+00
Tachyhydrite         Element not present.    0.000e+00           0   0.000e+00
Thenardite           Element not present.    0.000e+00           0   0.000e+00
Trona                Element not present.    0.000e+00           0   0.000e+00
Vaterite             Element not present.    0.000e+00           0   0.000e+00

-----------------------------Solution composition------------------------------

	Elements           Molality       Moles

	Cl                2.759e-02   1.710e-02
	Na                2.759e-02   1.710e-02

----------------------------Description of solution----------------------------

                                       pH  =   7.488      Charge balance
                                       pe  =   4.000      Adjusted to redox equilibrium
      Specific Conductance (µS/cm,  -0°C)  = 1551
                          Density (g/cm³)  =   1.00108
                               Volume (L)  =   0.62016
                        Activity of water  =   0.999
                 Ionic strength (mol/kgw)  =   2.759e-02
                       Mass of water (kg)  =   6.198e-01
                 Total alkalinity (eq/kg)  =   3.977e-09
                         Temperature (°C)  =  -0.10
                  Electrical balance (eq)  =  -2.465e-09
 Percent error, 100*(Cat-|An|)/(Cat+|An|)  =  -0.00
                               Iterations  =   6 (1410 overall)
                         Gamma iterations  =   1
                      Osmotic coefficient  =   0.95408
                         Density of water  =   0.99983
                                  Total H  = 6.881273e+01
                                  Total O  = 3.440636e+01

----------------------------Distribution of species----------------------------

                                                    Unscaled  Unscaled
                                Unscaled       Log       Log       Log    mole V
   Species          Molality    Activity  Molality  Activity     Gamma    cm³/mol

   OH-             4.166e-08   3.510e-08    -7.380    -7.455    -0.074     -6.05
   H+              3.768e-08   3.252e-08    -7.424    -7.488    -0.064      0.00
   H2O             5.551e+01   9.991e-01     1.744    -0.000     0.000     18.02
Cl            2.759e-02
   Cl-             2.759e-02   2.367e-02    -1.559    -1.626    -0.067     16.53
Na            2.759e-02
   Na+             2.759e-02   2.367e-02    -1.559    -1.626    -0.067     -3.33

------------------------------Saturation indices-------------------------------

  Phase               SI** log IAP   log K(273 K,   1 atm)

  Halite           -4.75     -3.25    1.50  NaCl
  Hydrohalite      -4.51     -3.25    1.25  NaCl:2H2O
  Ice(s)            0.00     -0.00   -0.00  H2O

**For a gas, SI = log10(fugacity). Fugacity = pressure * phi / 1 atm.
  For ideal gases, phi = 1.

Reaction step 3.

Using solution 1.	
Using pure phase assemblage 1.	
Using temperature 1.	

-------------------------------Phase assemblage--------------------------------

                                                      Moles in assemblage
Phase               SI  log IAP  log K(T, P)   Initial       Final       Delta

Anhydrite            Element not present.    0.000e+00           0   0.000e+00
Antarcticite         Element not present.    0.000e+00           0   0.000e+00
Aphthitalite         Element not present.    0.000e+00           0   0.000e+00
Aragonite            Element not present.    0.000e+00           0   0.000e+00
Arcanite             Element not present.    0.000e+00           0   0.000e+00
Bischofite           Element not present.    0.000e+00           0   0.000e+00
Bloedite             Element not present.    0.000e+00           0   0.000e+00
Calcite              Element not present.    0.000e+00           0   0.000e+00
Carnallite           Element not present.    0.000e+00           0   0.000e+00
Dolomite             Element not present.    0.000e+00           0   0.000e+00
Epsomite             Element not present.    0.000e+00           0   0.000e+00
Gypsum               Element not present.    0.000e+00           0   0.000e+00
Halite           -4.17    -2.67      1.50    0.000e+00           0   0.000e+00
Hexahydrite          Element not present.    0.000e+00           0   0.000e+00
Hydrohalite      -3.93    -2.68      1.25    0.000e+00           0   0.000e+00
Hydromagnesite       Element not present.    0.000e+00           0   0.000e+00
Ice(s)            0.00    -0.00     -0.00    0.000e+00   3.865e+01   3.865e+01
Ikaite               Element not present.    0.000e+00           0   0.000e+00
Kalicinite           Element not present.    0.000e+00           0   0.000e+00
Kieserite            Element not present.    0.000e+00           0   0.000e+00
Landsfordite         Element not present.    0.000e+00           0   0.000e+00
Magnesite            Element not present.    0.000e+00           0   0.000e+00
Meridianite          Element not present.    0.000e+00           0   0.000e+00
MgCl2:12H2O          Element not present.    0.000e+00           0   0.000e+00
MgCl2:8H2O           Element not present.    0.000e+00           0   0.000e+00
Mirabilite           Element not present.    0.000e+00           0   0.000e+00
Na2CO3:7H2O          Element not present.    0.000e+00           0   0.000e+00
Nahcolite            Element not present.    0.000e+00           0   0.000e+00
Natron               Element not present.    0.000e+00           0   0.000e+00
Nesquehonite         Element not present.    0.000e+00           0   0.000e+00
Picromerite          Element not present.    0.000e+00           0   0.000e+00
Sylvite              Element not present.    0.000e+00           0   0.000e+00
Tachyhydrite         Element not present.    0.000e+00           0   0.000e+00
Thenardite           Element not present.    0.000e+00           0   0.000e+00
Trona                Element not present.    0.000e+00           0   0.000e+00
Vaterite             Element not present.    0.000e+00           0   0.000e+00

-----------------------------Solution composition------------------------------

	Elements           Molality       Moles

	Cl                5.630e-02   1.710e-02
	Na                5.630e-02   1.710e-02

----------------------------Description of solution----------------------------

                                       pH  =   7.505      Charge balance
                                       pe  =   4.000      Adjusted to redox equilibrium
      Specific Conductance (µS/cm,  -0°C)  = 3045
                          Density (g/cm³)  =   1.00236
                               Volume (L)  =   0.30402
                        Activity of water  =   0.998
                 Ionic strength (mol/kgw)  =   5.630e-02
                       Mass of water (kg)  =   3.037e-01
                 Total alkalinity (eq/kg)  =   8.116e-09
                         Temperature (°C)  =  -0.20
                  Electrical balance (eq)  =  -2.465e-09
 Percent error, 100*(Cat-|An|)/(Cat+|An|)  =  -0.00
                               Iterations  =  10 (1414 overall)
                         Gamma iterations  =   1
                      Osmotic coefficient  =   0.94190
                         Density of water  =   0.99983
                                  Total H  = 3.372076e+01
                                  Total O  = 1.686038e+01

----------------------------Distribution of species----------------------------

                                                    Unscaled  Unscaled
                                Unscaled       Log       Log       Log    mole V
   Species          Molality    Activity  Molality  Activity     Gamma    cm³/mol

   OH-             4.589e-08   3.612e-08    -7.338    -7.442    -0.104     -5.98
   H+              3.777e-08   3.125e-08    -7.423    -7.505    -0.082      0.00
   H2O             5.551e+01   9.981e-01     1.744    -0.001     0.000     18.02
Cl            5.630e-02
   Cl-             5.630e-02   4.598e-02    -1.250    -1.337    -0.088     16.57
Na            5.630e-02
   Na+             5.630e-02   4.598e-02    -1.250    -1.337    -0.088     -3.23

------------------------------Saturation indices-------------------------------

  Phase               SI** log IAP   log K(272 K,   1 atm)

  Halite           -4.17     -2.67    1.50  NaCl
  Hydrohalite      -3.93     -2.68    1.25  NaCl:2H2O
  Ice(s)            0.00     -0.00   -0.00  H2O

**For a gas, SI = log10(fugacity). Fugacity = pressure * phi / 1 atm.
  For ideal gases, phi = 1.

Reaction step 4.

Using solution 1.	
Using pure phase assemblage 1.	
Using temperature 1.	

-------------------------------Phase assemblage--------------------------------

                                                      Moles in assemblage
Phase               SI  log IAP  log K(T, P)   Initial       Final       Delta

Anhydrite            Element not present.    0.000e+00           0   0.000e+00
Antarcticite         Element not present.    0.000e+00           0   0.000e+00
Aphthitalite         Element not present.    0.000e+00           0   0.000e+00
Aragonite            Element not present.    0.000e+00           0   0.000e+00
Arcanite             Element not present.    0.000e+00           0   0.000e+00
Bischofite           Element not present.    0.000e+00           0   0.000e+00
Bloedite             Element not present.    0.000e+00           0   0.000e+00
Calcite              Element not present.    0.000e+00           0   0.000e+00
Carnallite           Element not present.    0.000e+00           0   0.000e+00
Dolomite             Element not present.    0.000e+00           0   0.000e+00
Epsomite             Element not present.    0.000e+00           0   0.000e+00
Gypsum               Element not present.    0.000e+00           0   0.000e+00
Halite           -3.84    -2.34      1.49    0.000e+00           0   0.000e+00
Hexahydrite          Element not present.    0.000e+00           0   0.000e+00
Hydrohalite      -3.59    -2.34      1.25    0.000e+00           0   0.000e+00
Hydromagnesite       Element not present.    0.000e+00           0   0.000e+00
Ice(s)            0.00    -0.00     -0.00    0.000e+00   4.438e+01   4.438e+01
Ikaite               Element not present.    0.000e+00           0   0.000e+00
Kalicinite           Element not present.    0.000e+00           0   0.000e+00
Kieserite            Element not present.    0.000e+00           0   0.000e+00
Landsfordite         Element not present.    0.000e+00           0   0.000e+00
Magnesite            Element not present.    0.000e+00           0   0.000e+00
Meridianite          Element not present.    0.000e+00           0   0.000e+00
MgCl2:12H2O          Element not present.    0.000e+00           0   0.000e+00
MgCl2:8H2O           Element not present.    0.000e+00           0   0.000e+00
Mirabilite           Element not present.    0.000e+00           0   0.000e+00
Na2CO3:7H2O          Element not present.    0.000e+00           0   0.000e+00
Nahcolite            Element not present.    0.000e+00           0   0.000e+00
Natron               Element not present.    0.000e+00           0   0.000e+00
Nesquehonite         Element not present.    0.000e+00           0   0.000e+00
Picromerite          Element not present.    0.000e+00           0   0.000e+00
Sylvite              Element not present.    0.000e+00           0   0.000e+00
Tachyhydrite         Element not present.    0.000e+00           0   0.000e+00
Thenardite           Element not present.    0.000e+00           0   0.000e+00
Trona                Element not present.    0.000e+00           0   0.000e+00
Vaterite             Element not present.    0.000e+00           0   0.000e+00

-----------------------------Solution composition------------------------------

	Elements           Molality       Moles

	Cl                8.532e-02   1.710e-02
	Na                8.532e-02   1.710e-02

----------------------------Description of solution----------------------------

                                       pH  =   7.521      Charge balance
                                       pe  =   4.000      Adjusted to redox equilibrium
      Specific Conductance (µS/cm,  -0°C)  = 4486
                          Density (g/cm³)  =   1.00365
                               Volume (L)  =   0.20069
                        Activity of water  =   0.997
                 Ionic strength (mol/kgw)  =   8.532e-02
                       Mass of water (kg)  =   2.004e-01
                 Total alkalinity (eq/kg)  =   1.230e-08
                         Temperature (°C)  =  -0.30
                  Electrical balance (eq)  =  -2.465e-09
 Percent error, 100*(Cat-|An|)/(Cat+|An|)  =  -0.00
                               Iterations  =  12 (1416 overall)
                         Gamma iterations  =   1
                      Osmotic coefficient  =   0.93457
                         Density of water  =   0.99982
                                  Total H  = 2.225073e+01
                                  Total O  = 1.112536e+01

----------------------------Distribution of species----------------------------

                                                    Unscaled  Unscaled
                                Unscaled       Log       Log       Log    mole V
   Species          Molality    Activity  Molality  Activity     Gamma    cm³/mol

   OH-             4.962e-08   3.709e-08    -7.304    -7.431    -0.126     -5.93
   H+              3.732e-08   3.010e-08    -7.428    -7.521    -0.093      0.00
   H2O             5.551e+01   9.971e-01     1.744    -0.001     0.000     18.02
Cl            8.532e-02
   Cl-             8.532e-02   6.742e-02    -1.069    -1.171    -0.102     16.61
Na            8.532e-02
   Na+             8.532e-02   6.742e-02    -1.069    -1.171    -0.102     -3.15

------------------------------Saturation indices-------------------------------

  Phase               SI** log IAP   log K(272 K,   1 atm)

  Halite           -3.84     -2.34    1.49  NaCl
  Hydrohalite      -3.59     -2.34    1.25  NaCl:2H2O
  Ice(s)            0.00     -0.00   -0.00  H2O

**For a gas, SI = log10(fugacity). Fugacity = pressure * phi / 1 atm.
  For ideal gases, phi = 1.

Reaction step 5.

Using solution 1.	
Using pure phase assemblage 1.	
Using temperature 1.	

-------------------------------Phase assemblage--------------------------------

                                                      Moles in assemblage
Phase               SI  log IAP  log K(T, P)   Initial       Final       Delta

Anhydrite            Element not present.    0.000e+00           0   0.000e+00
Antarcticite         Element not present.    0.000e+00           0   0.000e+00
Aphthitalite         Element not present.    0.000e+00           0   0.000e+00
Aragonite            Element not present.    0.000e+00           0   0.000e+00
Arcanite             Element not present.    0.000e+00           0   0.000e+00
Bischofite           Element not present.    0.000e+00           0   0.000e+00
Bloedite             Element not present.    0.000e+00           0   0.000e+00
Calcite              Element not present.    0.000e+00           0   0.000e+00
Carnallite           Element not present.    0.000e+00           0   0.000e+00
Dolomite             Element not present.    0.000e+00           0   0.000e+00
Epsomite             Element not present.    0.000e+00           0   0.000e+00
Gypsum               Element not present.    0.000e+00           0   0.000e+00
Halite           -3.60    -2.11      1.49    0.000e+00           0   0.000e+00
Hexahydrite          Element not present.    0.000e+00           0   0.000e+00
Hydrohalite      -3.36    -2.11      1.25    0.000e+00           0   0.000e+00
Hydromagnesite       Element not present.    0.000e+00           0   0.000e+00
Ice(s)            0.00    -0.00     -0.00    0.000e+00   4.722e+01   4.722e+01
Ikaite               Element not present.    0.000e+00           0   0.000e+00
Kalicinite           Element not present.    0.000e+00           0   0.000e+00
Kieserite            Element not present.    0.000e+00           0   0.000e+00
Landsfordite         Element not present.    0.000e+00           0   0.000e+00
Magnesite            Element not present.    0.000e+00           0   0.000e+00
Meridianite          Element not present.    0.000e+00           0   0.000e+00
MgCl2:12H2O          Element not present.    0.000e+00           0   0.000e+00
MgCl2:8H2O           Element not present.    0.000e+00           0   0.000e+00
Mirabilite           Element not present.    0.000e+00           0   0.000e+00
Na2CO3:7H2O          Element not present.    0.000e+00           0   0.000e+00
Nahcolite            Element not present.    0.000e+00           0   0.000e+00
Natron               Element not present.    0.000e+00           0   0.000e+00
Nesquehonite         Element not present.    0.000e+00           0   0.000e+00
Picromerite          Element not present.    0.000e+00           0   0.000e+00
Sylvite              Element not present.    0.000e+00           0   0.000e+00
Tachyhydrite         Element not present.    0.000e+00           0   0.000e+00
Thenardite           Element not present.    0.000e+00           0   0.000e+00
Trona                Element not present.    0.000e+00           0   0.000e+00
Vaterite             Element not present.    0.000e+00           0   0.000e+00

-----------------------------Solution composition------------------------------

	Elements           Molality       Moles

	Cl                1.145e-01   1.710e-02
	Na                1.145e-01   1.710e-02

----------------------------Description of solution----------------------------

                                       pH  =   7.537      Charge balance
                                       pe  =   4.000      Adjusted to redox equilibrium
      Specific Conductance (µS/cm,  -0°C)  = 5882
                          Density (g/cm³)  =   1.00494
                               Volume (L)  =   0.14957
                        Activity of water  =   0.996
                 Ionic strength (mol/kgw)  =   1.145e-01
                       Mass of water (kg)  =   1.493e-01
                 Total alkalinity (eq/kg)  =   1.651e-08
                         Temperature (°C)  =  -0.40
                  Electrical balance (eq)  =  -2.465e-09
 Percent error, 100*(Cat-|An|)/(Cat+|An|)  =  -0.00
                               Iterations  =  14 (1418 overall)
                         Gamma iterations  =   1
                      Osmotic coefficient  =   0.92950
                         Density of water  =   0.99981
                                  Total H  = 1.657652e+01
                                  Total O  = 8.288261e+00

----------------------------Distribution of species----------------------------

                                                    Unscaled  Unscaled
                                Unscaled       Log       Log       Log    mole V
   Species          Molality    Activity  Molality  Activity     Gamma    cm³/mol

   OH-             5.314e-08   3.803e-08    -7.275    -7.420    -0.145     -5.87
   H+              3.663e-08   2.904e-08    -7.436    -7.537    -0.101      0.00
   H2O             5.551e+01   9.962e-01     1.744    -0.002     0.000     18.02
Cl            1.145e-01
   Cl-             1.145e-01   8.826e-02    -0.941    -1.054    -0.113     16.63
Na            1.145e-01
   Na+             1.145e-01   8.826e-02    -0.941    -1.054    -0.113     -3.08

------------------------------Saturation indices-------------------------------

  Phase               SI** log IAP   log K(272 K,   1 atm)

  Halite           -3.60     -2.11    1.49  NaCl
  Hydrohalite      -3.36     -2.11    1.25  NaCl:2H2O
  Ice(s)            0.00     -0.00   -0.00  H2O

**For a gas, SI = log10(fugacity). Fugacity = pressure * phi / 1 atm.
  For ideal gases, phi = 1.

Reaction step 6.

Using solution 1.	
Using pure phase assemblage 1.	
Using temperature 1.	

-------------------------------Phase assemblage--------------------------------

                                                      Moles in assemblage
Phase               SI  log IAP  log K(T, P)   Initial       Final       Delta

Anhydrite            Element not present.    0.000e+00           0   0.000e+00
Antarcticite         Element not present.    0.000e+00           0   0.000e+00
Aphthitalite         Element not present.    0.000e+00           0   0.000e+00
Aragonite            Element not present.    0.000e+00           0   0.000e+00
Arcanite             Element not present.    0.000e+00           0   0.000e+00
Bischofite           Element not present.    0.000e+00           0   0.000e+00
Bloedite             Element not present.    0.000e+00           0   0.000e+00
Calcite              Element not present.    0.000e+00           0   0.000e+00
Carnallite           Element not present.    0.000e+00           0   0.000e+00
Dolomite             Element not present.    0.000e+00           0   0.000e+00
Epsomite             Element not present.    0.000e+00           0   0.000e+00
Gypsum               Element not present.    0.000e+00           0   0.000e+00
Halite           -3.42    -1.93      1.49    0.000e+00           0   0.000e+00
Hexahydrite          Element not present.    0.000e+00           0   0.000e+00
Hydrohalite      -3.18    -1.93      1.25    0.000e+00           0   0.000e+00
Hydromagnesite       Element not present.    0.000e+00           0   0.000e+00
Ice(s)            0.00    -0.00     -0.00    0.000e+00   4.891e+01   4.891e+01
Ikaite               Element not present.    0.000e+00           0   0.000e+00
Kalicinite           Element not present.    0.000e+00           0   0.000e+00
Kieserite            Element not present.    0.000e+00           0   0.000e+00
Landsfordite         Element not present.    0.000e+00           0   0.000e+00
Magnesite            Element not present.    0.000e+00           0   0.000e+00
Meridianite          Element not present.    0.000e+00           0   0.000e+00
MgCl2:12H2O          Element not present.    0.000e+00           0   0.000e+00
MgCl2:8H2O           Element not present.    0.000e+00           0   0.000e+00
Mirabilite           Element not present.    0.000e+00           0   0.000e+00
Na2CO3:7H2O          Element not present.    0.000e+00           0   0.000e+00
Nahcolite            Element not present.    0.000e+00           0   0.000e+00
Natron               Element not present.    0.000e+00           0   0.000e+00
Nesquehonite         Element not present.    0.000e+00           0   0.000e+00
Picromerite          Element not present.    0.000e+00           0   0.000e+00
Sylvite              Element not present.    0.000e+00           0   0.000e+00
Tachyhydrite         Element not present.    0.000e+00           0   0.000e+00
Thenardite           Element not present.    0.000e+00           0   0.000e+00
Trona                Element not present.    0.000e+00           0   0.000e+00
Vaterite             Element not present.    0.000e+00           0   0.000e+00

-----------------------------Solution composition------------------------------

	Elements           Molality       Moles

	Cl                1.438e-01   1.710e-02
	Na                1.438e-01   1.710e-02

----------------------------Description of solution----------------------------

                                       pH  =   7.552      Charge balance
                                       pe  =   4.000      Adjusted to redox equilibrium
      Specific Conductance (µS/cm,  -1°C)  = 7238
                          Density (g/cm³)  =   1.00624
                               Volume (L)  =   0.11913
                        Activity of water  =   0.995
                 Ionic strength (mol/kgw)  =   1.438e-01
                       Mass of water (kg)  =   1.189e-01
                 Total alkalinity (eq/kg)  =   2.074e-08
                         Temperature (°C)  =  -0.50
                  Electrical balance (eq)  =  -2.465e-09
 Percent error, 100*(Cat-|An|)/(Cat+|An|)  =  -0.00
                               Iterations  =  15 (1419 overall)
                         Gamma iterations  =   1
                      Osmotic coefficient  =   0.92575
                         Density of water  =   0.99980
                                  Total H  = 1.319725e+01
                                  Total O  = 6.598627e+00

----------------------------Distribution of species----------------------------

                                                    Unscaled  Unscaled
                                Unscaled       Log       Log       Log    mole V
   Species          Molality    Activity  Molality  Activity     Gamma    cm³/mol

   OH-             5.655e-08   3.893e-08    -7.248    -7.410    -0.162     -5.83
   H+              3.581e-08   2.806e-08    -7.446    -7.552    -0.106      0.00
   H2O             5.551e+01   9.952e-01     1.744    -0.002     0.000     18.02
Cl            1.438e-01
   Cl-             1.438e-01   1.086e-01    -0.842    -0.964    -0.122     16.65
Na            1.438e-01
   Na+             1.438e-01   1.086e-01    -0.842    -0.964    -0.122     -3.03

------------------------------Saturation indices-------------------------------

  Phase               SI** log IAP   log K(272 K,   1 atm)

  Halite           -3.42     -1.93    1.49  NaCl
  Hydrohalite      -3.18     -1.93    1.25  NaCl:2H2O
  Ice(s)            0.00     -0.00   -0.00  H2O

**For a gas, SI = log10(fugacity). Fugacity = pressure * phi / 1 atm.
  For ideal gases, phi = 1.

Reaction step 7.

Using solution 1.	
Using pure phase assemblage 1.	
Using temperature 1.	

-------------------------------Phase assemblage--------------------------------

                                                      Moles in assemblage
Phase               SI  log IAP  log K(T, P)   Initial       Final       Delta

Anhydrite            Element not present.    0.000e+00           0   0.000e+00
Antarcticite         Element not present.    0.000e+00           0   0.000e+00
Aphthitalite         Element not present.    0.000e+00           0   0.000e+00
Aragonite            Element not present.    0.000e+00           0   0.000e+00
Arcanite             Element not present.    0.000e+00           0   0.000e+00
Bischofite           Element not present.    0.000e+00           0   0.000e+00
Bloedite             Element not present.    0.000e+00           0   0.000e+00
Calcite              Element not present.    0.000e+00           0   0.000e+00
Carnallite           Element not present.    0.000e+00           0   0.000e+00
Dolomite             Element not present.    0.000e+00           0   0.000e+00
Epsomite             Element not present.    0.000e+00           0   0.000e+00
Gypsum               Element not present.    0.000e+00           0   0.000e+00
Halite           -3.27    -1.78      1.49    0.000e+00           0   0.000e+00
Hexahydrite          Element not present.    0.000e+00           0   0.000e+00
Hydrohalite      -3.03    -1.79      1.25    0.000e+00           0   0.000e+00
Hydromagnesite       Element not present.    0.000e+00           0   0.000e+00
Ice(s)            0.00    -0.00     -0.00    0.000e+00   5.003e+01   5.003e+01
Ikaite               Element not present.    0.000e+00           0   0.000e+00
Kalicinite           Element not present.    0.000e+00           0   0.000e+00
Kieserite            Element not present.    0.000e+00           0   0.000e+00
Landsfordite         Element not present.    0.000e+00           0   0.000e+00
Magnesite            Element not present.    0.000e+00           0   0.000e+00
Meridianite          Element not present.    0.000e+00           0   0.000e+00
MgCl2:12H2O          Element not present.    0.000e+00           0   0.000e+00
MgCl2:8H2O           Element not present.    0.000e+00           0   0.000e+00
Mirabilite           Element not present.    0.000e+00           0   0.000e+00
Na2CO3:7H2O          Element not present.    0.000e+00           0   0.000e+00
Nahcolite            Element not present.    0.000e+00           0   0.000e+00
Natron               Element not present.    0.000e+00           0   0.000e+00
Nesquehonite         Element not present.    0.000e+00           0   0.000e+00
Picromerite          Element not present.    0.000e+00           0   0.000e+00
Sylvite              Element not present.    0.000e+00           0   0.000e+00
Tachyhydrite         Element not present.    0.000e+00           0   0.000e+00
Thenardite           Element not present.    0.000e+00           0   0.000e+00
Trona                Element not present.    0.000e+00           0   0.000e+00
Vaterite             Element not present.    0.000e+00           0   0.000e+00

-----------------------------Solution composition------------------------------

	Elements           Molality       Moles

	Cl                1.733e-01   1.710e-02
	Na                1.733e-01   1.710e-02

----------------------------Description of solution----------------------------

                                       pH  =   7.566      Charge balance
                                       pe  =   4.000      Adjusted to redox equilibrium
      Specific Conductance (µS/cm,  -1°C)  = 8558
                          Density (g/cm³)  =   1.00753
                               Volume (L)  =   0.09895
                        Activity of water  =   0.994
                 Ionic strength (mol/kgw)  =   1.733e-01
                       Mass of water (kg)  =   9.870e-02
                 Total alkalinity (eq/kg)  =   2.498e-08
                         Temperature (°C)  =  -0.60
                  Electrical balance (eq)  =  -2.465e-09
 Percent error, 100*(Cat-|An|)/(Cat+|An|)  =  -0.00
                               Iterations  =  16 (1420 overall)
                         Gamma iterations  =   1
                      Osmotic coefficient  =   0.92286
                         Density of water  =   0.99980
                                  Total H  = 1.095730e+01
                                  Total O  = 5.478652e+00

----------------------------Distribution of species----------------------------

                                                    Unscaled  Unscaled
                                Unscaled       Log       Log       Log    mole V
   Species          Molality    Activity  Molality  Activity     Gamma    cm³/mol

   OH-             5.991e-08   3.980e-08    -7.222    -7.400    -0.178     -5.78
   H+              3.494e-08   2.714e-08    -7.457    -7.566    -0.110      0.00
   H2O             5.551e+01   9.943e-01     1.744    -0.003     0.000     18.02
Cl            1.733e-01
   Cl-             1.733e-01   1.286e-01    -0.761    -0.891    -0.129     16.67
Na            1.733e-01
   Na+             1.733e-01   1.286e-01    -0.761    -0.891    -0.129     -2.98

------------------------------Saturation indices-------------------------------

  Phase               SI** log IAP   log K(272 K,   1 atm)

  Halite           -3.27     -1.78    1.49  NaCl
  Hydrohalite      -3.03     -1.79    1.25  NaCl:2H2O
  Ice(s)            0.00     -0.00   -0.00  H2O

**For a gas, SI = log10(fugacity). Fugacity = pressure * phi / 1 atm.
  For ideal gases, phi = 1.

Reaction step 8.

Using solution 1.	
Using pure phase assemblage 1.	
Using temperature 1.	

-------------------------------Phase assemblage--------------------------------

                                                      Moles in assemblage
Phase               SI  log IAP  log K(T, P)   Initial       Final       Delta

Anhydrite            Element not present.    0.000e+00           0   0.000e+00
Antarcticite         Element not present.    0.000e+00           0   0.000e+00
Aphthitalite         Element not present.    0.000e+00           0   0.000e+00
Aragonite            Element not present.    0.000e+00           0   0.000e+00
Arcanite             Element not present.    0.000e+00           0   0.000e+00
Bischofite           Element not present.    0.000e+00           0   0.000e+00
Bloedite             Element not present.    0.000e+00           0   0.000e+00
Calcite              Element not present.    0.000e+00           0   0.000e+00
Carnallite           Element not present.    0.000e+00           0   0.000e+00
Dolomite             Element not present.    0.000e+00           0   0.000e+00
Epsomite             Element not present.    0.000e+00           0   0.000e+00
Gypsum               Element not present.    0.000e+00           0   0.000e+00
Halite           -3.15    -1.66      1.49    0.000e+00           0   0.000e+00
Hexahydrite          Element not present.    0.000e+00           0   0.000e+00
Hydrohalite      -2.91    -1.66      1.24    0.000e+00           0   0.000e+00
Hydromagnesite       Element not present.    0.000e+00           0   0.000e+00
Ice(s)            0.00    -0.00     -0.00    0.000e+00   5.083e+01   5.083e+01
Ikaite               Element not present.    0.000e+00           0   0.000e+00
Kalicinite           Element not present.    0.000e+00           0   0.000e+00
Kieserite            Element not present.    0.000e+00           0   0.000e+00
Landsfordite         Element not present.    0.000e+00           0   0.000e+00
Magnesite            Element not present.    0.000e+00           0   0.000e+00
Meridianite          Element not present.    0.000e+00           0   0.000e+00
MgCl2:12H2O          Element not present.    0.000e+00           0   0.000e+00
MgCl2:8H2O           Element not present.    0.000e+00           0   0.000e+00
Mirabilite           Element not present.    0.000e+00           0   0.000e+00
Na2CO3:7H2O          Element not present.    0.000e+00           0   0.000e+00
Nahcolite            Element not present.    0.000e+00           0   0.000e+00
Natron               Element not present.    0.000e+00           0   0.000e+00
Nesquehonite         Element not present.    0.000e+00           0   0.000e+00
Picromerite          Element not present.    0.000e+00           0   0.000e+00
Sylvite              Element not present.    0.000e+00           0   0.000e+00
Tachyhydrite         Element not present.    0.000e+00           0   0.000e+00
Thenardite           Element not present.    0.000e+00           0   0.000e+00
Trona                Element not present.    0.000e+00           0   0.000e+00
Vaterite             Element not present.    0.000e+00           0   0.000e+00

-----------------------------Solution composition------------------------------

	Elements           Molality       Moles

	Cl                2.027e-01   1.710e-02
	Na                2.027e-01   1.710e-02

----------------------------Description of solution----------------------------

                                       pH  =   7.580      Charge balance
                                       pe  =   4.000      Adjusted to redox equilibrium
      Specific Conductance (µS/cm,  -1°C)  = 9844
                          Density (g/cm³)  =   1.00882
                               Volume (L)  =   0.08461
                        Activity of water  =   0.993
                 Ionic strength (mol/kgw)  =   2.027e-01
                       Mass of water (kg)  =   8.435e-02
                 Total alkalinity (eq/kg)  =   2.923e-08
                         Temperature (°C)  =  -0.70
                  Electrical balance (eq)  =  -2.465e-09
 Percent error, 100*(Cat-|An|)/(Cat+|An|)  =  -0.00
                               Iterations  =  17 (1421 overall)
                         Gamma iterations  =   1
                      Osmotic coefficient  =   0.92058
                         Density of water  =   0.99979
                                  Total H  = 9.364791e+00
                                  Total O  = 4.682396e+00

----------------------------Distribution of species----------------------------

                                                    Unscaled  Unscaled
                                Unscaled       Log       Log       Log    mole V
   Species          Molality    Activity  Molality  Activity     Gamma    cm³/mol

   OH-             6.326e-08   4.065e-08    -7.199    -7.391    -0.192     -5.74
   H+              3.403e-08   2.629e-08    -7.468    -7.580    -0.112      0.00
   H2O             5.551e+01   9.933e-01     1.744    -0.003     0.000     18.02
Cl            2.027e-01
   Cl-             2.027e-01   1.483e-01    -0.693    -0.829    -0.136     16.69
Na            2.027e-01
   Na+             2.027e-01   1.483e-01    -0.693    -0.829    -0.136     -2.94

------------------------------Saturation indices-------------------------------

  Phase               SI** log IAP   log K(272 K,   1 atm)

  Halite           -3.15     -1.66    1.49  NaCl
  Hydrohalite      -2.91     -1.66    1.24  NaCl:2H2O
  Ice(s)            0.00     -0.00   -0.00  H2O

**For a gas, SI = log10(fugacity). Fugacity = pressure * phi / 1 atm.
  For ideal gases, phi = 1.

Reaction step 9.

Using solution 1.	
Using pure phase assemblage 1.	
Using temperature 1.	

-------------------------------Phase assemblage--------------------------------

                                                      Moles in assemblage
Phase               SI  log IAP  log K(T, P)   Initial       Final       Delta

Anhydrite            Element not present.    0.000e+00           0   0.000e+00
Antarcticite         Element not present.    0.000e+00           0   0.000e+00
Aphthitalite         Element not present.    0.000e+00           0   0.000e+00
Aragonite            Element not present.    0.000e+00           0   0.000e+00
Arcanite             Element not present.    0.000e+00           0   0.000e+00
Bischofite           Element not present.    0.000e+00           0   0.000e+00
Bloedite             Element not present.    0.000e+00           0   0.000e+00
Calcite              Element not present.    0.000e+00           0   0.000e+00
Carnallite           Element not present.    0.000e+00           0   0.000e+00
Dolomite             Element not present.    0.000e+00           0   0.000e+00
Epsomite             Element not present.    0.000e+00           0   0.000e+00
Gypsum               Element not present.    0.000e+00           0   0.000e+00
Halite           -3.04    -1.55      1.49    0.000e+00           0   0.000e+00
Hexahydrite          Element not present.    0.000e+00           0   0.000e+00
Hydrohalite      -2.80    -1.56      1.24    0.000e+00           0   0.000e+00
Hydromagnesite       Element not present.    0.000e+00           0   0.000e+00
Ice(s)            0.00    -0.00     -0.00    0.000e+00   5.142e+01   5.142e+01
Ikaite               Element not present.    0.000e+00           0   0.000e+00
Kalicinite           Element not present.    0.000e+00           0   0.000e+00
Kieserite            Element not present.    0.000e+00           0   0.000e+00
Landsfordite         Element not present.    0.000e+00           0   0.000e+00
Magnesite            Element not present.    0.000e+00           0   0.000e+00
Meridianite          Element not present.    0.000e+00           0   0.000e+00
MgCl2:12H2O          Element not present.    0.000e+00           0   0.000e+00
MgCl2:8H2O           Element not present.    0.000e+00           0   0.000e+00
Mirabilite           Element not present.    0.000e+00           0   0.000e+00
Na2CO3:7H2O          Element not present.    0.000e+00           0   0.000e+00
Nahcolite            Element not present.    0.000e+00           0   0.000e+00
Natron               Element not present.    0.000e+00           0   0.000e+00
Nesquehonite         Element not present.    0.000e+00           0   0.000e+00
Picromerite          Element not present.    0.000e+00           0   0.000e+00
Sylvite              Element not present.    0.000e+00           0   0.000e+00
Tachyhydrite         Element not present.    0.000e+00           0   0.000e+00
Thenardite           Element not present.    0.000e+00           0   0.000e+00
Trona                Element not present.    0.000e+00           0   0.000e+00
Vaterite             Element not present.    0.000e+00           0   0.000e+00

-----------------------------Solution composition------------------------------

	Elements           Molality       Moles

	Cl                2.322e-01   1.710e-02
	Na                2.322e-01   1.710e-02

----------------------------Description of solution----------------------------

                                       pH  =   7.594      Charge balance
                                       pe  =   4.000      Adjusted to redox equilibrium
      Specific Conductance (µS/cm,  -1°C)  = 11097
                          Density (g/cm³)  =   1.01011
                               Volume (L)  =   0.07389
                        Activity of water  =   0.992
                 Ionic strength (mol/kgw)  =   2.322e-01
                       Mass of water (kg)  =   7.364e-02
                 Total alkalinity (eq/kg)  =   3.348e-08
                         Temperature (°C)  =  -0.80
                  Electrical balance (eq)  =  -2.465e-09
 Percent error, 100*(Cat-|An|)/(Cat+|An|)  =  -0.00
                               Iterations  =  18 (1422 overall)
                         Gamma iterations  =   1
                      Osmotic coefficient  =   0.91874
                         Density of water  =   0.99978
                                  Total H  = 8.175087e+00
                                  Total O  = 4.087543e+00

----------------------------Distribution of species----------------------------

                                                    Unscaled  Unscaled
                                Unscaled       Log       Log       Log    mole V
   Species          Molality    Activity  Molality  Activity     Gamma    cm³/mol

   OH-             6.659e-08   4.147e-08    -7.177    -7.382    -0.206     -5.70
   H+              3.311e-08   2.548e-08    -7.480    -7.594    -0.114      0.00
   H2O             5.551e+01   9.923e-01     1.744    -0.003     0.000     18.02
Cl            2.322e-01
   Cl-             2.322e-01   1.678e-01    -0.634    -0.775    -0.141     16.70
Na            2.322e-01
   Na+             2.322e-01   1.678e-01    -0.634    -0.775    -0.141     -2.90

------------------------------Saturation indices-------------------------------

  Phase               SI** log IAP   log K(272 K,   1 atm)

  Halite           -3.04     -1.55    1.49  NaCl
  Hydrohalite      -2.80     -1.56    1.24  NaCl:2H2O
  Ice(s)            0.00     -0.00   -0.00  H2O

**For a gas, SI = log10(fugacity). Fugacity = pressure * phi / 1 atm.
  For ideal gases, phi = 1.

Reaction step 10.

Using solution 1.	
Using pure phase assemblage 1.	
Using temperature 1.	

-------------------------------Phase assemblage--------------------------------

                                                      Moles in assemblage
Phase               SI  log IAP  log K(T, P)   Initial       Final       Delta

Anhydrite            Element not present.    0.000e+00           0   0.000e+00
Antarcticite         Element not present.    0.000e+00           0   0.000e+00
Aphthitalite         Element not present.    0.000e+00           0   0.000e+00
Aragonite            Element not present.    0.000e+00           0   0.000e+00
Arcanite             Element not present.    0.000e+00           0   0.000e+00
Bischofite           Element not present.    0.000e+00           0   0.000e+00
Bloedite             Element not present.    0.000e+00           0   0.000e+00
Calcite              Element not present.    0.000e+00           0   0.000e+00
Carnallite           Element not present.    0.000e+00           0   0.000e+00
Dolomite             Element not present.    0.000e+00           0   0.000e+00
Epsomite             Element not present.    0.000e+00           0   0.000e+00
Gypsum               Element not present.    0.000e+00           0   0.000e+00
Halite           -2.95    -1.46      1.49    0.000e+00           0   0.000e+00
Hexahydrite          Element not present.    0.000e+00           0   0.000e+00
Hydrohalite      -2.71    -1.46      1.24    0.000e+00           0   0.000e+00
Hydromagnesite       Element not present.    0.000e+00           0   0.000e+00
Ice(s)            0.00    -0.00     -0.00    0.000e+00   5.188e+01   5.188e+01
Ikaite               Element not present.    0.000e+00           0   0.000e+00
Kalicinite           Element not present.    0.000e+00           0   0.000e+00
Kieserite            Element not present.    0.000e+00           0   0.000e+00
Landsfordite         Element not present.    0.000e+00           0   0.000e+00
Magnesite            Element not present.    0.000e+00           0   0.000e+00
Meridianite          Element not present.    0.000e+00           0   0.000e+00
MgCl2:12H2O          Element not present.    0.000e+00           0   0.000e+00
MgCl2:8H2O           Element not present.    0.000e+00           0   0.000e+00
Mirabilite           Element not present.    0.000e+00           0   0.000e+00
Na2CO3:7H2O          Element not present.    0.000e+00           0   0.000e+00
Nahcolite            Element not present.    0.000e+00           0   0.000e+00
Natron               Element not present.    0.000e+00           0   0.000e+00
Nesquehonite         Element not present.    0.000e+00           0   0.000e+00
Picromerite          Element not present.    0.000e+00           0   0.000e+00
Sylvite              Element not present.    0.000e+00           0   0.000e+00
Tachyhydrite         Element not present.    0.000e+00           0   0.000e+00
Thenardite           Element not present.    0.000e+00           0   0.000e+00
Trona                Element not present.    0.000e+00           0   0.000e+00
Vaterite             Element not present.    0.000e+00           0   0.000e+00

-----------------------------Solution composition------------------------------

	Elements           Molality       Moles

	Cl                2.617e-01   1.710e-02
	Na                2.617e-01   1.710e-02

----------------------------Description of solution----------------------------

                                       pH  =   7.607      Charge balance
                                       pe  =   4.000      Adjusted to redox equilibrium
      Specific Conductance (µS/cm,  -1°C)  = 12320
                          Density (g/cm³)  =   1.01140
                               Volume (L)  =   0.06558
                        Activity of water  =   0.991
                 Ionic strength (mol/kgw)  =   2.617e-01
                       Mass of water (kg)  =   6.533e-02
                 Total alkalinity (eq/kg)  =   3.774e-08
                         Temperature (°C)  =  -0.90
                  Electrical balance (eq)  =  -2.465e-09
 Percent error, 100*(Cat-|An|)/(Cat+|An|)  =  -0.00
                               Iterations  =  18 (1422 overall)
                         Gamma iterations  =   1
                      Osmotic coefficient  =   0.91724
                         Density of water  =   0.99977
                                  Total H  = 7.252885e+00
                                  Total O  = 3.626442e+00

----------------------------Distribution of species----------------------------

                                                    Unscaled  Unscaled
                                Unscaled       Log       Log       Log    mole V
   Species          Molality    Activity  Molality  Activity     Gamma    cm³/mol

   OH-             6.994e-08   4.227e-08    -7.155    -7.374    -0.219     -5.66
   H+              3.220e-08   2.473e-08    -7.492    -7.607    -0.115      0.00
   H2O             5.551e+01   9.914e-01     1.744    -0.004     0.000     18.02
Cl            2.617e-01
   Cl-             2.617e-01   1.870e-01    -0.582    -0.728    -0.146     16.72
Na            2.617e-01
   Na+             2.617e-01   1.870e-01    -0.582    -0.728    -0.146     -2.86

------------------------------Saturation indices-------------------------------

  Phase               SI** log IAP   log K(272 K,   1 atm)

  Halite           -2.95     -1.46    1.49  NaCl
  Hydrohalite      -2.71     -1.46    1.24  NaCl:2H2O
  Ice(s)            0.00     -0.00   -0.00  H2O

**For a gas, SI = log10(fugacity). Fugacity = pressure * phi / 1 atm.
  For ideal gases, phi = 1.

Reaction step 11.

Using solution 1.	
Using pure phase assemblage 1.	
Using temperature 1.	

-------------------------------Phase assemblage--------------------------------

                                                      Moles in assemblage
Phase               SI  log IAP  log K(T, P)   Initial       Final       Delta

Anhydrite            Element not present.    0.000e+00           0   0.000e+00
Antarcticite         Element not present.    0.000e+00           0   0.000e+00
Aphthitalite         Element not present.    0.000e+00           0   0.000e+00
Aragonite            Element not present.    0.000e+00           0   0.000e+00
Arcanite             Element not present.    0.000e+00           0   0.000e+00
Bischofite           Element not present.    0.000e+00           0   0.000e+00
Bloedite             Element not present.    0.000e+00           0   0.000e+00
Calcite              Element not present.    0.000e+00           0   0.000e+00
Carnallite           Element not present.    0.000e+00           0   0.000e+00
Dolomite             Element not present.    0.000e+00           0   0.000e+00
Epsomite             Element not present.    0.000e+00           0   0.000e+00
Gypsum               Element not present.    0.000e+00           0   0.000e+00
Halite           -2.86    -1.37      1.49    0.000e+00           0   0.000e+00
Hexahydrite          Element not present.    0.000e+00           0   0.000e+00
Hydrohalite      -2.62    -1.38      1.24    0.000e+00           0   0.000e+00
Hydromagnesite       Element not present.    0.000e+00           0   0.000e+00
Ice(s)            0.00    -0.00     -0.00    0.000e+00   5.225e+01   5.225e+01
Ikaite               Element not present.    0.000e+00           0   0.000e+00
Kalicinite           Element not present.    0.000e+00           0   0.000e+00
Kieserite            Element not present.    0.000e+00           0   0.000e+00
Landsfordite         Element not present.    0.000e+00           0   0.000e+00
Magnesite            Element not present.    0.000e+00           0   0.000e+00
Meridianite          Element not present.    0.000e+00           0   0.000e+00
MgCl2:12H2O          Element not present.    0.000e+00           0   0.000e+00
MgCl2:8H2O           Element not present.    0.000e+00           0   0.000e+00
Mirabilite           Element not present.    0.000e+00           0   0.000e+00
Na2CO3:7H2O          Element not present.    0.000e+00           0   0.000e+00
Nahcolite            Element not present.    0.000e+00           0   0.000e+00
Natron               Element not present.    0.000e+00           0   0.000e+00
Nesquehonite         Element not present.    0.000e+00           0   0.000e+00
Picromerite          Element not present.    0.000e+00           0   0.000e+00
Sylvite              Element not present.    0.000e+00           0   0.000e+00
Tachyhydrite         Element not present.    0.000e+00           0   0.000e+00
Thenardite           Element not present.    0.000e+00           0   0.000e+00
Trona                Element not present.    0.000e+00           0   0.000e+00
Vaterite             Element not present.    0.000e+00           0   0.000e+00

-----------------------------Solution composition------------------------------

	Elements           Molality       Moles

	Cl                2.913e-01   1.710e-02
	Na                2.913e-01   1.710e-02

----------------------------Description of solution----------------------------

                                       pH  =   7.620      Charge balance
                                       pe  =   4.000      Adjusted to redox equilibrium
      Specific Conductance (µS/cm,  -1°C)  = 13514
                          Density (g/cm³)  =   1.01268
                               Volume (L)  =   0.05896
                        Activity of water  =   0.990
                 Ionic strength (mol/kgw)  =   2.913e-01
                       Mass of water (kg)  =   5.870e-02
                 Total alkalinity (eq/kg)  =   4.199e-08
                         Temperature (°C)  =  -1.00
                  Electrical balance (eq)  =  -2.465e-09
 Percent error, 100*(Cat-|An|)/(Cat+|An|)  =  -0.00
                               Iterations  =  19 (1423 overall)
                         Gamma iterations  =   1
                      Osmotic coefficient  =   0.91601
                         Density of water  =   0.99976
                                  Total H  = 6.517307e+00
                                  Total O  = 3.258653e+00

----------------------------Distribution of species----------------------------

                                                    Unscaled  Unscaled
                                Unscaled       Log       Log       Log    mole V
   Species          Molality    Activity  Molality  Activity     Gamma    cm³/mol

   OH-             7.330e-08   4.304e-08    -7.135    -7.366    -0.231     -5.63
   H+              3.130e-08   2.401e-08    -7.504    -7.620    -0.115      0.00
   H2O             5.551e+01   9.904e-01     1.744    -0.004     0.000     18.02
Cl            2.913e-01
   Cl-             2.913e-01   2.060e-01    -0.536    -0.686    -0.151     16.73
Na            2.913e-01
   Na+             2.913e-01   2.060e-01    -0.536    -0.686    -0.151     -2.83

------------------------------Saturation indices-------------------------------

  Phase               SI** log IAP   log K(272 K,   1 atm)

  Halite           -2.86     -1.37    1.49  NaCl
  Hydrohalite      -2.62     -1.38    1.24  NaCl:2H2O
  Ice(s)            0.00     -0.00   -0.00  H2O

**For a gas, SI = log10(fugacity). Fugacity = pressure * phi / 1 atm.
  For ideal gases, phi = 1.

Reaction step 12.

Using solution 1.	
Using pure phase assemblage 1.	
Using temperature 1.	

-------------------------------Phase assemblage--------------------------------

                                                      Moles in assemblage
Phase               SI  log IAP  log K(T, P)   Initial       Final       Delta

Anhydrite            Element not present.    0.000e+00           0   0.000e+00
Antarcticite         Element not present.    0.000e+00           0   0.000e+00
Aphthitalite         Element not present.    0.000e+00           0   0.000e+00
Aragonite            Element not present.    0.000e+00           0   0.000e+00
Arcanite             Element not present.    0.000e+00           0   0.000e+00
Bischofite           Element not present.    0.000e+00           0   0.000e+00
Bloedite             Element not present.    0.000e+00           0   0.000e+00
Calcite              Element not present.    0.000e+00           0   0.000e+00
Carnallite           Element not present.    0.000e+00           0   0.000e+00
Dolomite             Element not present.    0.000e+00           0   0.000e+00
Epsomite             Element not present.    0.000e+00           0   0.000e+00
Gypsum               Element not present.    0.000e+00           0   0.000e+00
Halite           -2.79    -1.30      1.49    0.000e+00           0   0.000e+00
Hexahydrite          Element not present.    0.000e+00           0   0.000e+00
Hydrohalite      -2.54    -1.31      1.24    0.000e+00           0   0.000e+00
Hydromagnesite       Element not present.    0.000e+00           0   0.000e+00
Ice(s)            0.00    -0.00     -0.00    0.000e+00   5.255e+01   5.255e+01
Ikaite               Element not present.    0.000e+00           0   0.000e+00
Kalicinite           Element not present.    0.000e+00           0   0.000e+00
Kieserite            Element not present.    0.000e+00           0   0.000e+00
Landsfordite         Element not present.    0.000e+00           0   0.000e+00
Magnesite            Element not present.    0.000e+00           0   0.000e+00
Meridianite          Element not present.    0.000e+00           0   0.000e+00
MgCl2:12H2O          Element not present.    0.000e+00           0   0.000e+00
[...]
Trona                Element not present.    0.000e+00           0   0.000e+00
Vaterite             Element not present.    0.000e+00           0   0.000e+00

-----------------------------Solution composition------------------------------

	Elements           Molality       Moles

	Cl                5.093e+00   1.710e-02
	Na                5.093e+00   1.710e-02

----------------------------Description of solution----------------------------

                                       pH  =   7.890      Charge balance
                                       pe  =   4.000      Adjusted to redox equilibrium
      Specific Conductance (µS/cm, -21°C)  = 46778
                          Density (g/cm³)  =   1.20946
                               Volume (L)  =   0.00360
                        Activity of water  =   0.816
                 Ionic strength (mol/kgw)  =   5.093e+00
                       Mass of water (kg)  =   3.358e-03
                 Total alkalinity (eq/kg)  =   7.343e-07
                         Temperature (°C)  = -20.90
                  Electrical balance (eq)  =  -2.465e-09
 Percent error, 100*(Cat-|An|)/(Cat+|An|)  =  -0.00
                               Iterations  =  54 (1458 overall)
                         Gamma iterations  =   1
                      Osmotic coefficient  =   1.10830
                         Density of water  =   0.99301
                                  Total H  = 3.727503e-01
                                  Total O  = 1.863751e-01

----------------------------Distribution of species----------------------------

                                                    Unscaled  Unscaled
                                Unscaled       Log       Log       Log    mole V
   Species          Molality    Activity  Molality  Activity     Gamma    cm³/mol

   OH-             7.369e-07   6.926e-09    -6.133    -8.160    -2.027     -5.44
   H+              2.653e-09   1.288e-08    -8.576    -7.890     0.686      0.00
   H2O             5.551e+01   8.160e-01     1.744    -0.088     0.000     18.14
Cl            5.093e+00
   Cl-             5.093e+00   3.430e+00     0.707     0.535    -0.172     15.29
Na            5.093e+00
   Na+             5.093e+00   3.430e+00     0.707     0.535    -0.172     -2.35

------------------------------Saturation indices-------------------------------

  Phase               SI** log IAP   log K(252 K,   1 atm)

  Halite           -0.30      1.07    1.37  NaCl
  Hydrohalite      -0.01      0.89    0.91  NaCl:2H2O
  Ice(s)            0.00     -0.09   -0.09  H2O

**For a gas, SI = log10(fugacity). Fugacity = pressure * phi / 1 atm.
  For ideal gases, phi = 1.

Reaction step 211.

Using solution 1.	
Using pure phase assemblage 1.	
Using temperature 1.	

-------------------------------Phase assemblage--------------------------------

                                                      Moles in assemblage
Phase               SI  log IAP  log K(T, P)   Initial       Final       Delta

Anhydrite            Element not present.    0.000e+00           0   0.000e+00
Antarcticite         Element not present.    0.000e+00           0   0.000e+00
Aphthitalite         Element not present.    0.000e+00           0   0.000e+00
Aragonite            Element not present.    0.000e+00           0   0.000e+00
Arcanite             Element not present.    0.000e+00           0   0.000e+00
Bischofite           Element not present.    0.000e+00           0   0.000e+00
Bloedite             Element not present.    0.000e+00           0   0.000e+00
Calcite              Element not present.    0.000e+00           0   0.000e+00
Carnallite           Element not present.    0.000e+00           0   0.000e+00
Dolomite             Element not present.    0.000e+00           0   0.000e+00
Epsomite             Element not present.    0.000e+00           0   0.000e+00
Gypsum               Element not present.    0.000e+00           0   0.000e+00
Halite           -0.29     1.07      1.37    0.000e+00           0   0.000e+00
Hexahydrite          Element not present.    0.000e+00           0   0.000e+00
Hydrohalite      -0.01     0.90      0.91    0.000e+00           0   0.000e+00
Hydromagnesite       Element not present.    0.000e+00           0   0.000e+00
Ice(s)            0.00    -0.09     -0.09    0.000e+00   5.532e+01   5.532e+01
Ikaite               Element not present.    0.000e+00           0   0.000e+00
Kalicinite           Element not present.    0.000e+00           0   0.000e+00
Kieserite            Element not present.    0.000e+00           0   0.000e+00
Landsfordite         Element not present.    0.000e+00           0   0.000e+00
Magnesite            Element not present.    0.000e+00           0   0.000e+00
Meridianite          Element not present.    0.000e+00           0   0.000e+00
MgCl2:12H2O          Element not present.    0.000e+00           0   0.000e+00
MgCl2:8H2O           Element not present.    0.000e+00           0   0.000e+00
Mirabilite           Element not present.    0.000e+00           0   0.000e+00
Na2CO3:7H2O          Element not present.    0.000e+00           0   0.000e+00
Nahcolite            Element not present.    0.000e+00           0   0.000e+00
Natron               Element not present.    0.000e+00           0   0.000e+00
Nesquehonite         Element not present.    0.000e+00           0   0.000e+00
Picromerite          Element not present.    0.000e+00           0   0.000e+00
Sylvite              Element not present.    0.000e+00           0   0.000e+00
Tachyhydrite         Element not present.    0.000e+00           0   0.000e+00
Thenardite           Element not present.    0.000e+00           0   0.000e+00
Trona                Element not present.    0.000e+00           0   0.000e+00
Vaterite             Element not present.    0.000e+00           0   0.000e+00

-----------------------------Solution composition------------------------------

	Elements           Molality       Moles

	Cl                5.111e+00   1.710e-02
	Na                5.111e+00   1.710e-02

----------------------------Description of solution----------------------------

                                       pH  =   7.888      Charge balance
                                       pe  =   4.000      Adjusted to redox equilibrium
      Specific Conductance (µS/cm, -21°C)  = 46580
                          Density (g/cm³)  =   1.21027
                               Volume (L)  =   0.00359
                        Activity of water  =   0.815
                 Ionic strength (mol/kgw)  =   5.111e+00
                       Mass of water (kg)  =   3.346e-03
                 Total alkalinity (eq/kg)  =   7.374e-07
                         Temperature (°C)  = -21.00
                  Electrical balance (eq)  =  -2.467e-09
 Percent error, 100*(Cat-|An|)/(Cat+|An|)  =  -0.00
                               Iterations  =  53 (1457 overall)
                         Gamma iterations  =   1
                      Osmotic coefficient  =   1.10966
                         Density of water  =   0.99294
                                  Total H  = 3.714207e-01
                                  Total O  = 1.857104e-01

----------------------------Distribution of species----------------------------

                                                    Unscaled  Unscaled
                                Unscaled       Log       Log       Log    mole V
   Species          Molality    Activity  Molality  Activity     Gamma    cm³/mol

   OH-             7.400e-07   6.805e-09    -6.131    -8.167    -2.036     -5.47
   H+              2.639e-09   1.293e-08    -8.579    -7.888     0.690      0.00
   H2O             5.551e+01   8.152e-01     1.744    -0.089     0.000     18.14
Cl            5.111e+00
   Cl-             5.111e+00   3.445e+00     0.709     0.537    -0.171     15.27
Na            5.111e+00
   Na+             5.111e+00   3.445e+00     0.709     0.537    -0.171     -2.36

------------------------------Saturation indices-------------------------------

  Phase               SI** log IAP   log K(252 K,   1 atm)

  Halite           -0.29      1.07    1.37  NaCl
  Hydrohalite      -0.01      0.90    0.91  NaCl:2H2O
  Ice(s)            0.00     -0.09   -0.09  H2O

**For a gas, SI = log10(fugacity). Fugacity = pressure * phi / 1 atm.
  For ideal gases, phi = 1.

Reaction step 212.

Using solution 1.	
Using pure phase assemblage 1.	
Using temperature 1.	

-------------------------------Phase assemblage--------------------------------

                                                      Moles in assemblage
Phase               SI  log IAP  log K(T, P)   Initial       Final       Delta

Anhydrite            Element not present.    0.000e+00           0   0.000e+00
Antarcticite         Element not present.    0.000e+00           0   0.000e+00
Aphthitalite         Element not present.    0.000e+00           0   0.000e+00
Aragonite            Element not present.    0.000e+00           0   0.000e+00
Arcanite             Element not present.    0.000e+00           0   0.000e+00
Bischofite           Element not present.    0.000e+00           0   0.000e+00
Bloedite             Element not present.    0.000e+00           0   0.000e+00
Calcite              Element not present.    0.000e+00           0   0.000e+00
Carnallite           Element not present.    0.000e+00           0   0.000e+00
Dolomite             Element not present.    0.000e+00           0   0.000e+00
Epsomite             Element not present.    0.000e+00           0   0.000e+00
Gypsum               Element not present.    0.000e+00           0   0.000e+00
Halite           -0.29     1.08      1.37    0.000e+00           0   0.000e+00
Hexahydrite          Element not present.    0.000e+00           0   0.000e+00
Hydrohalite      -0.00     0.90      0.90    0.000e+00           0   0.000e+00
Hydromagnesite       Element not present.    0.000e+00           0   0.000e+00
Ice(s)            0.00    -0.09     -0.09    0.000e+00   5.532e+01   5.532e+01
Ikaite               Element not present.    0.000e+00           0   0.000e+00
Kalicinite           Element not present.    0.000e+00           0   0.000e+00
Kieserite            Element not present.    0.000e+00           0   0.000e+00
Landsfordite         Element not present.    0.000e+00           0   0.000e+00
Magnesite            Element not present.    0.000e+00           0   0.000e+00
Meridianite          Element not present.    0.000e+00           0   0.000e+00
MgCl2:12H2O          Element not present.    0.000e+00           0   0.000e+00
MgCl2:8H2O           Element not present.    0.000e+00           0   0.000e+00
Mirabilite           Element not present.    0.000e+00           0   0.000e+00
Na2CO3:7H2O          Element not present.    0.000e+00           0   0.000e+00
Nahcolite            Element not present.    0.000e+00           0   0.000e+00
Natron               Element not present.    0.000e+00           0   0.000e+00
Nesquehonite         Element not present.    0.000e+00           0   0.000e+00
Picromerite          Element not present.    0.000e+00           0   0.000e+00
Sylvite              Element not present.    0.000e+00           0   0.000e+00
Tachyhydrite         Element not present.    0.000e+00           0   0.000e+00
Thenardite           Element not present.    0.000e+00           0   0.000e+00
Trona                Element not present.    0.000e+00           0   0.000e+00
Vaterite             Element not present.    0.000e+00           0   0.000e+00

-----------------------------Solution composition------------------------------

	Elements           Molality       Moles

	Cl                5.129e+00   1.710e-02
	Na                5.129e+00   1.710e-02

----------------------------Description of solution----------------------------

                                       pH  =   7.886      Charge balance
                                       pe  =   4.000      Adjusted to redox equilibrium
      Specific Conductance (µS/cm, -21°C)  = 46381
                          Density (g/cm³)  =   1.21109
                               Volume (L)  =   0.00358
                        Activity of water  =   0.814
                 Ionic strength (mol/kgw)  =   5.129e+00
                       Mass of water (kg)  =   3.334e-03
                 Total alkalinity (eq/kg)  =   7.395e-07
                         Temperature (°C)  = -21.10
                  Electrical balance (eq)  =  -2.465e-09
 Percent error, 100*(Cat-|An|)/(Cat+|An|)  =  -0.00
                               Iterations  =  53 (1457 overall)
                         Gamma iterations  =   1
                      Osmotic coefficient  =   1.11102
                         Density of water  =   0.99287
                                  Total H  = 3.701043e-01
                                  Total O  = 1.850521e-01

----------------------------Distribution of species----------------------------

                                                    Unscaled  Unscaled
                                Unscaled       Log       Log       Log    mole V
   Species          Molality    Activity  Molality  Activity     Gamma    cm³/mol

   OH-             7.422e-07   6.677e-09    -6.130    -8.175    -2.046     -5.51
   H+              2.629e-09   1.300e-08    -8.580    -7.886     0.694      0.00
   H2O             5.551e+01   8.144e-01     1.744    -0.089     0.000     18.15
Cl            5.129e+00
   Cl-             5.129e+00   3.461e+00     0.710     0.539    -0.171     15.25
Na            5.129e+00
   Na+             5.129e+00   3.461e+00     0.710     0.539    -0.171     -2.38

------------------------------Saturation indices-------------------------------

  Phase               SI** log IAP   log K(252 K,   1 atm)

  Halite           -0.29      1.08    1.37  NaCl
  Hydrohalite      -0.00      0.90    0.90  NaCl:2H2O
  Ice(s)            0.00     -0.09   -0.09  H2O

**For a gas, SI = log10(fugacity). Fugacity = pressure * phi / 1 atm.
  For ideal gases, phi = 1.

Reaction step 213.

ERROR:               Ice(s) Pure phase has not converged. 	Residual: -2.057204e-01

Using solution 1.	
Using pure phase assemblage 1.	
Using temperature 1.	

-------------------------------Phase assemblage--------------------------------

                                                      Moles in assemblage
Phase               SI  log IAP  log K(T, P)   Initial       Final       Delta

Anhydrite            Element not present.    0.000e+00           0   0.000e+00
Antarcticite         Element not present.    0.000e+00           0   0.000e+00
Aphthitalite         Element not present.    0.000e+00           0   0.000e+00
Aragonite            Element not present.    0.000e+00           0   0.000e+00
Arcanite             Element not present.    0.000e+00           0   0.000e+00
Bischofite           Element not present.    0.000e+00           0   0.000e+00
Bloedite             Element not present.    0.000e+00           0   0.000e+00
Calcite              Element not present.    0.000e+00           0   0.000e+00
Carnallite           Element not present.    0.000e+00           0   0.000e+00
Dolomite             Element not present.    0.000e+00           0   0.000e+00
Epsomite             Element not present.    0.000e+00           0   0.000e+00
Gypsum               Element not present.    0.000e+00           0   0.000e+00
Halite           -4.90    -3.53      1.37    0.000e+00           0   0.000e+00
Hexahydrite          Element not present.    0.000e+00           0   0.000e+00
Hydrohalite      -4.44    -3.53      0.90    0.000e+00           0   0.000e+00
Hydromagnesite       Element not present.    0.000e+00           0   0.000e+00
Ice(s)            0.09    -0.00     -0.09    0.000e+00           0   0.000e+00
Ikaite               Element not present.    0.000e+00           0   0.000e+00
Kalicinite           Element not present.    0.000e+00           0   0.000e+00
Kieserite            Element not present.    0.000e+00           0   0.000e+00
Landsfordite         Element not present.    0.000e+00           0   0.000e+00
Magnesite            Element not present.    0.000e+00           0   0.000e+00
Meridianite          Element not present.    0.000e+00           0   0.000e+00
MgCl2:12H2O          Element not present.    0.000e+00           0   0.000e+00
MgCl2:8H2O           Element not present.    0.000e+00           0   0.000e+00
Mirabilite           Element not present.    0.000e+00           0   0.000e+00
Na2CO3:7H2O          Element not present.    0.000e+00           0   0.000e+00
Nahcolite            Element not present.    0.000e+00           0   0.000e+00
Natron               Element not present.    0.000e+00           0   0.000e+00
Nesquehonite         Element not present.    0.000e+00           0   0.000e+00
Picromerite          Element not present.    0.000e+00           0   0.000e+00
Sylvite              Element not present.    0.000e+00           0   0.000e+00
Tachyhydrite         Element not present.    0.000e+00           0   0.000e+00
Thenardite           Element not present.    0.000e+00           0   0.000e+00
Trona                Element not present.    0.000e+00           0   0.000e+00
Vaterite             Element not present.    0.000e+00           0   0.000e+00

-----------------------------Solution composition------------------------------

	Elements           Molality       Moles

	Cl                1.710e-02   1.710e-02
	Na                1.710e-02   1.710e-02

----------------------------Description of solution----------------------------

                                       pH  =   8.041      Charge balance
                                       pe  =   4.000      Adjusted to redox equilibrium
      Specific Conductance (µS/cm, -21°C)  = 374
                          Density (g/cm³)  =   0.99375
                               Volume (L)  =   1.00730
                        Activity of water  =   0.999
                 Ionic strength (mol/kgw)  =   1.710e-02
                       Mass of water (kg)  =   1.000e+00
                 Total alkalinity (eq/kg)  =   2.465e-09
                         Temperature (°C)  = -21.20
                  Electrical balance (eq)  =  -2.465e-09
 Percent error, 100*(Cat-|An|)/(Cat+|An|)  =  -0.00
                               Iterations  = 401 (3209 overall)
                         Gamma iterations  =   0
                      Osmotic coefficient  =   1.11004
                         Density of water  =   0.99280
                                  Total H  = 1.110186e+02
                                  Total O  = 5.550930e+01

----------------------------Distribution of species----------------------------

                                                    Unscaled  Unscaled
                                Unscaled       Log       Log       Log    mole V
   Species          Molality    Activity  Molality  Activity     Gamma    cm³/mol

   OH-             1.156e-08   1.156e-08    -7.937    -7.937     0.000    -12.47
   H+              9.097e-09   9.097e-09    -8.041    -8.041     0.000      0.00
   H2O             5.551e+01   9.994e-01     1.744    -0.000     0.000     18.15
Cl            1.710e-02
   Cl-             1.710e-02   1.710e-02    -1.767    -1.767     0.000     11.28
Na            1.710e-02
   Na+             1.710e-02   1.710e-02    -1.767    -1.767     0.000     -8.48

------------------------------Saturation indices-------------------------------

  Phase               SI** log IAP   log K(251 K,   1 atm)

  Halite           -4.90     -3.53    1.37  NaCl
  Hydrohalite      -4.44     -3.53    0.90  NaCl:2H2O
  Ice(s)            0.09     -0.00   -0.09  H2O

**For a gas, SI = log10(fugacity). Fugacity = pressure * phi / 1 atm.
  For ideal gases, phi = 1.

ERROR: Numerical method failed on all combinations of convergence parameters, cell/soln/mix 1
--------------------------------
End of Run after 25.121 Seconds.
--------------------------------

