   Input file: C:\Users\nswol\Dropbox\Graduate School\Research\UTIG\Projects\2021-Wolfenbarger-Bulk Properties\PHREEQC\Binary\MgSO4_1ppt.pqi
  Output file: C:\Users\nswol\Dropbox\Graduate School\Research\UTIG\Projects\2021-Wolfenbarger-Bulk Properties\PHREEQC\Binary\MgSO4_1ppt.pqo
Database file: C:\Program Files (x86)\USGS\Phreeqc Interactive 3.7.3-15968\database\ColdChem.dat

------------------
Reading data base.
------------------

	SOLUTION_MASTER_SPECIES								
	SOLUTION_SPECIES								
	PHASES								
	PITZER								
------------------------------------
Reading input data for simulation 1.
------------------------------------

	DATABASE C:\Program Files (x86)\USGS\Phreeqc Interactive 3.7.3-15968\database\ColdChem.dat
	TITLE MgSO4 (1 ppt)
	SOLUTION
		units	mol/kgw
			Mg	0.0083	
			S	0.0083	
	EQUILIBRIUM_PHASES
		Halite		0.0	0.0
		Hydrohalite		0.0	0.0
		Sylvite		0.0	0.0
		Bischofite		0.0	0.0
		MgCl2:8H2O		0.0	0.0
		MgCl2:12H2O		0.0	0.0
		Antarcticite	0.0	0.0
		Tachyhydrite	0.0	0.0
		Carnallite		0.0	0.0
		Thenardite		0.0	0.0
		Na2SO4:7H2O		0.0	0.0
		Mirabilite		0.0	0.0
		Arcanite		0.0	0.0
		Kieserite		0.0	0.0
		Starkeyite		0.0	0.0
		Pentahydrite	0.0	0.0
		Hexahydrite		0.0	0.0
		Epsomite		0.0	0.0
		Meridianiite	0.0	0.0
		Anhydrite		0.0	0.0
		Bassanite		0.0	0.0
		Gypsum		0.0	0.0
		Glaserite		0.0	0.0
		Bloedite		0.0	0.0
		Glauberite		0.0	0.0
		Labile_Salt		0.0	0.0
		Leonite		0.0	0.0
		Picromerite		0.0	0.0
		Langbeinite		0.0	0.0
		Syngenite		0.0	0.0
		Kainite		0.0	0.0
		Polyhalite		0.0	0.0
		Ice(s) 		0.0	0.0
	REACTION_TEMPERATURE
	        0 -30.0 in 301 steps
	END
-----
TITLE
-----

 MgSO4 (1 ppt)

-------------------------------------------
Beginning of initial solution calculations.
-------------------------------------------

Initial solution 1.	

-----------------------------Solution composition------------------------------

	Elements           Molality       Moles

	Mg                8.300e-03   8.300e-03
	S                 8.300e-03   8.300e-03

----------------------------Description of solution----------------------------

                                       pH  =   7.000    
                                       pe  =   4.000    
                        Activity of water  =   1.000
                 Ionic strength (mol/kgw)  =   3.320e-02
                       Mass of water (kg)  =   1.000e+00
                 Total alkalinity (eq/kg)  =  -2.731e-11
                         Temperature (°C)  =  25.00
                  Electrical balance (eq)  =   2.731e-11
 Percent error, 100*(Cat-|An|)/(Cat+|An|)  =   0.00
                               Iterations  =   4
                         Gamma iterations  =   2
                      Osmotic coefficient  =   0.75703
                                  Total H  = 1.110186e+02
                                  Total O  = 5.554250e+01

----------------------------Distribution of species----------------------------

                                                    Unscaled  Unscaled
                                Unscaled       Log       Log       Log    mole V
   Species          Molality    Activity  Molality  Activity     Gamma    cm³/mol

   H+              1.207e-07   1.000e-07    -6.918    -7.000    -0.082      0.00
   OH-             1.206e-07   9.998e-08    -6.919    -7.000    -0.082     (0)  
   H2O             5.551e+01   9.998e-01     1.744    -0.000     0.000     18.07
Mg            8.300e-03
   Mg+2            8.300e-03   3.690e-03    -2.081    -2.433    -0.352     (0)  
S(6)          8.300e-03
   SO4-2           8.300e-03   3.690e-03    -2.081    -2.433    -0.352     (0)  

------------------------------Saturation indices-------------------------------

  Phase               SI** log IAP   log K(298 K,   1 atm)

  Epsomite         -3.01     -4.87   -1.85  MgSO4:7H2O
  Hexahydrite      -3.30     -4.87   -1.56  MgSO4:6H2O
  Ice(s)           -0.10     -0.00    0.10  H2O
  Kieserite        -4.81     -4.87   -0.05  MgSO4:H2O
  Meridianiite     -3.60     -4.87   -1.27  MgSO4:11H2O
  Pentahydrite     -3.67     -4.87   -1.19  MgSO4:5H2O
  Starkeyite       -4.12     -4.87   -0.75  MgSO4:4H2O

**For a gas, SI = log10(fugacity). Fugacity = pressure * phi / 1 atm.
  For ideal gases, phi = 1.

-----------------------------------------
Beginning of batch-reaction calculations.
-----------------------------------------

Reaction step 1.

WARNING: Element Ca is contained in Anhydrite (which has 0.0 mass),	
but is not in solution or other phases.
WARNING: Element Ca is contained in Antarcticite (which has 0.0 mass),	
but is not in solution or other phases.
WARNING: Element Cl is contained in Antarcticite (which has 0.0 mass),	
but is not in solution or other phases.
WARNING: Element K is contained in Arcanite (which has 0.0 mass),	
but is not in solution or other phases.
WARNING: Element Ca is contained in Bassanite (which has 0.0 mass),	
but is not in solution or other phases.
WARNING: Element Cl is contained in Bischofite (which has 0.0 mass),	
but is not in solution or other phases.
WARNING: Element Na is contained in Bloedite (which has 0.0 mass),	
but is not in solution or other phases.
WARNING: Element Cl is contained in Carnallite (which has 0.0 mass),	
but is not in solution or other phases.
WARNING: Element K is contained in Carnallite (which has 0.0 mass),	
but is not in solution or other phases.
WARNING: Element K is contained in Glaserite (which has 0.0 mass),	
but is not in solution or other phases.
WARNING: Element Na is contained in Glaserite (which has 0.0 mass),	
but is not in solution or other phases.
WARNING: Element Ca is contained in Glauberite (which has 0.0 mass),	
but is not in solution or other phases.
WARNING: Element Na is contained in Glauberite (which has 0.0 mass),	
but is not in solution or other phases.
WARNING: Element Ca is contained in Gypsum (which has 0.0 mass),	
but is not in solution or other phases.
WARNING: Element Cl is contained in Halite (which has 0.0 mass),	
but is not in solution or other phases.
WARNING: Element Na is contained in Halite (which has 0.0 mass),	
but is not in solution or other phases.
WARNING: Element Cl is contained in Hydrohalite (which has 0.0 mass),	
but is not in solution or other phases.
WARNING: Element Na is contained in Hydrohalite (which has 0.0 mass),	
but is not in solution or other phases.
WARNING: Element Cl is contained in Kainite (which has 0.0 mass),	
but is not in solution or other phases.
WARNING: Element K is contained in Kainite (which has 0.0 mass),	
but is not in solution or other phases.
WARNING: Element Ca is contained in Labile_Salt (which has 0.0 mass),	
but is not in solution or other phases.
WARNING: Element Na is contained in Labile_Salt (which has 0.0 mass),	
but is not in solution or other phases.
WARNING: Element K is contained in Langbeinite (which has 0.0 mass),	
but is not in solution or other phases.
WARNING: Element K is contained in Leonite (which has 0.0 mass),	
but is not in solution or other phases.
WARNING: Element Cl is contained in MgCl2:12H2O (which has 0.0 mass),	
but is not in solution or other phases.
WARNING: Element Cl is contained in MgCl2:8H2O (which has 0.0 mass),	
but is not in solution or other phases.
WARNING: Element Na is contained in Mirabilite (which has 0.0 mass),	
but is not in solution or other phases.
WARNING: Element Na is contained in Na2SO4:7H2O (which has 0.0 mass),	
but is not in solution or other phases.
WARNING: Element K is contained in Picromerite (which has 0.0 mass),	
but is not in solution or other phases.
WARNING: Element Ca is contained in Polyhalite (which has 0.0 mass),	
but is not in solution or other phases.
WARNING: Element K is contained in Polyhalite (which has 0.0 mass),	
but is not in solution or other phases.
WARNING: Element Cl is contained in Sylvite (which has 0.0 mass),	
but is not in solution or other phases.
WARNING: Element K is contained in Sylvite (which has 0.0 mass),	
but is not in solution or other phases.
WARNING: Element Ca is contained in Syngenite (which has 0.0 mass),	
but is not in solution or other phases.
WARNING: Element K is contained in Syngenite (which has 0.0 mass),	
but is not in solution or other phases.
WARNING: Element Ca is contained in Tachyhydrite (which has 0.0 mass),	
but is not in solution or other phases.
WARNING: Element Cl is contained in Tachyhydrite (which has 0.0 mass),	
but is not in solution or other phases.
WARNING: Element Na is contained in Thenardite (which has 0.0 mass),	
but is not in solution or other phases.
Using solution 1.	
Using pure phase assemblage 1.	
Using temperature 1.	

-------------------------------Phase assemblage--------------------------------

                                                      Moles in assemblage
Phase               SI  log IAP  log K(T, P)   Initial       Final       Delta

Anhydrite            Element not present.    0.000e+00           0   0.000e+00
Antarcticite         Element not present.    0.000e+00           0   0.000e+00
Arcanite             Element not present.    0.000e+00           0   0.000e+00
Bassanite            Element not present.    0.000e+00           0   0.000e+00
Bischofite           Element not present.    0.000e+00           0   0.000e+00
Bloedite             Element not present.    0.000e+00           0   0.000e+00
Carnallite           Element not present.    0.000e+00           0   0.000e+00
Epsomite         -2.75    -4.83     -2.09    0.000e+00           0   0.000e+00
Glaserite            Element not present.    0.000e+00           0   0.000e+00
Glauberite           Element not present.    0.000e+00           0   0.000e+00
Gypsum               Element not present.    0.000e+00           0   0.000e+00
Halite               Element not present.    0.000e+00           0   0.000e+00
Hexahydrite      -3.25    -4.83     -1.59    0.000e+00           0   0.000e+00
Hydrohalite          Element not present.    0.000e+00           0   0.000e+00
Ice(s)           -0.00    -0.00      0.00    0.000e+00           0   0.000e+00
Kainite              Element not present.    0.000e+00           0   0.000e+00
Kieserite        -5.47    -4.83      0.64    0.000e+00           0   0.000e+00
Labile_Salt          Element not present.    0.000e+00           0   0.000e+00
Langbeinite          Element not present.    0.000e+00           0   0.000e+00
Leonite              Element not present.    0.000e+00           0   0.000e+00
Meridianiite     -2.66    -4.84     -2.18    0.000e+00           0   0.000e+00
MgCl2:12H2O          Element not present.    0.000e+00           0   0.000e+00
MgCl2:8H2O           Element not present.    0.000e+00           0   0.000e+00
Mirabilite           Element not present.    0.000e+00           0   0.000e+00
Na2SO4:7H2O          Element not present.    0.000e+00           0   0.000e+00
Pentahydrite     -3.76    -4.83     -1.08    0.000e+00           0   0.000e+00
Picromerite          Element not present.    0.000e+00           0   0.000e+00
Polyhalite           Element not present.    0.000e+00           0   0.000e+00
Starkeyite       -4.34    -4.83     -0.50    0.000e+00           0   0.000e+00
Sylvite              Element not present.    0.000e+00           0   0.000e+00
Syngenite            Element not present.    0.000e+00           0   0.000e+00
Tachyhydrite         Element not present.    0.000e+00           0   0.000e+00
Thenardite           Element not present.    0.000e+00           0   0.000e+00

-----------------------------Solution composition------------------------------

	Elements           Molality       Moles

	Mg                8.300e-03   8.300e-03
	S                 8.300e-03   8.300e-03

----------------------------Description of solution----------------------------

                                       pH  =   7.000      Charge balance
                                       pe  =   4.000      Adjusted to redox equilibrium
                        Activity of water  =   1.000
                 Ionic strength (mol/kgw)  =   3.320e-02
                       Mass of water (kg)  =   1.000e+00
                 Total alkalinity (eq/kg)  =  -2.731e-11
                         Temperature (°C)  =   0.00
                  Electrical balance (eq)  =   2.731e-11
 Percent error, 100*(Cat-|An|)/(Cat+|An|)  =   0.00
                               Iterations  =   3
                         Gamma iterations  =   2
                      Osmotic coefficient  =   0.76746
                                  Total H  = 1.110186e+02
                                  Total O  = 5.554250e+01

----------------------------Distribution of species----------------------------

                                                    Unscaled  Unscaled
                                Unscaled       Log       Log       Log    mole V
   Species          Molality    Activity  Molality  Activity     Gamma    cm³/mol

   H+              1.199e-07   1.000e-07    -6.921    -7.000    -0.079      0.00
   OH-             1.199e-07   9.998e-08    -6.921    -7.000    -0.079     (0)  
   H2O             5.551e+01   9.998e-01     1.744    -0.000     0.000     18.02
Mg            8.300e-03
   Mg+2            8.300e-03   3.827e-03    -2.081    -2.417    -0.336     (0)  
S(6)          8.300e-03
   SO4-2           8.300e-03   3.827e-03    -2.081    -2.417    -0.336     (0)  

------------------------------Saturation indices-------------------------------

  Phase               SI** log IAP   log K(273 K,   1 atm)

  Epsomite         -2.75     -4.83   -2.09  MgSO4:7H2O
  Hexahydrite      -3.25     -4.83   -1.59  MgSO4:6H2O
  Ice(s)           -0.00     -0.00    0.00  H2O
  Kieserite        -5.47     -4.83    0.64  MgSO4:H2O
  Meridianiite     -2.66     -4.84   -2.18  MgSO4:11H2O
  Pentahydrite     -3.76     -4.83   -1.08  MgSO4:5H2O
  Starkeyite       -4.34     -4.83   -0.50  MgSO4:4H2O

**For a gas, SI = log10(fugacity). Fugacity = pressure * phi / 1 atm.
  For ideal gases, phi = 1.

Reaction step 2.

WARNING: Element Ca is contained in Anhydrite (which has 0.0 mass),	
but is not in solution or other phases.
WARNING: Element Ca is contained in Antarcticite (which has 0.0 mass),	
but is not in solution or other phases.
WARNING: Element Cl is contained in Antarcticite (which has 0.0 mass),	
but is not in solution or other phases.
WARNING: Element K is contained in Arcanite (which has 0.0 mass),	
but is not in solution or other phases.
WARNING: Element Ca is contained in Bassanite (which has 0.0 mass),	
but is not in solution or other phases.
WARNING: Element Cl is contained in Bischofite (which has 0.0 mass),	
but is not in solution or other phases.
WARNING: Element Na is contained in Bloedite (which has 0.0 mass),	
but is not in solution or other phases.
WARNING: Element Cl is contained in Carnallite (which has 0.0 mass),	
but is not in solution or other phases.
WARNING: Element K is contained in Carnallite (which has 0.0 mass),	
but is not in solution or other phases.
WARNING: Element K is contained in Glaserite (which has 0.0 mass),	
but is not in solution or other phases.
WARNING: Element Na is contained in Glaserite (which has 0.0 mass),	
but is not in solution or other phases.
WARNING: Element Ca is contained in Glauberite (which has 0.0 mass),	
but is not in solution or other phases.
WARNING: Element Na is contained in Glauberite (which has 0.0 mass),	
but is not in solution or other phases.
WARNING: Element Ca is contained in Gypsum (which has 0.0 mass),	
but is not in solution or other phases.
WARNING: Element Cl is contained in Halite (which has 0.0 mass),	
but is not in solution or other phases.
WARNING: Element Na is contained in Halite (which has 0.0 mass),	
but is not in solution or other phases.
WARNING: Element Cl is contained in Hydrohalite (which has 0.0 mass),	
but is not in solution or other phases.
WARNING: Element Na is contained in Hydrohalite (which has 0.0 mass),	
but is not in solution or other phases.
WARNING: Element Cl is contained in Kainite (which has 0.0 mass),	
but is not in solution or other phases.
WARNING: Element K is contained in Kainite (which has 0.0 mass),	
but is not in solution or other phases.
WARNING: Element Ca is contained in Labile_Salt (which has 0.0 mass),	
but is not in solution or other phases.
WARNING: Element Na is contained in Labile_Salt (which has 0.0 mass),	
but is not in solution or other phases.
WARNING: Element K is contained in Langbeinite (which has 0.0 mass),	
but is not in solution or other phases.
WARNING: Element K is contained in Leonite (which has 0.0 mass),	
but is not in solution or other phases.
WARNING: Element Cl is contained in MgCl2:12H2O (which has 0.0 mass),	
but is not in solution or other phases.
WARNING: Element Cl is contained in MgCl2:8H2O (which has 0.0 mass),	
but is not in solution or other phases.
WARNING: Element Na is contained in Mirabilite (which has 0.0 mass),	
but is not in solution or other phases.
WARNING: Element Na is contained in Na2SO4:7H2O (which has 0.0 mass),	
but is not in solution or other phases.
WARNING: Element K is contained in Picromerite (which has 0.0 mass),	
but is not in solution or other phases.
WARNING: Element Ca is contained in Polyhalite (which has 0.0 mass),	
but is not in solution or other phases.
WARNING: Element K is contained in Polyhalite (which has 0.0 mass),	
but is not in solution or other phases.
WARNING: Element Cl is contained in Sylvite (which has 0.0 mass),	
but is not in solution or other phases.
WARNING: Element K is contained in Sylvite (which has 0.0 mass),	
but is not in solution or other phases.
WARNING: Element Ca is contained in Syngenite (which has 0.0 mass),	
but is not in solution or other phases.
WARNING: Element K is contained in Syngenite (which has 0.0 mass),	
but is not in solution or other phases.
WARNING: Element Ca is contained in Tachyhydrite (which has 0.0 mass),	
but is not in solution or other phases.
WARNING: Element Cl is contained in Tachyhydrite (which has 0.0 mass),	
but is not in solution or other phases.
WARNING: Element Na is contained in Thenardite (which has 0.0 mass),	
but is not in solution or other phases.
WARNING: Maximum iterations exceeded, 200

WARNING: Numerical method failed with this set of convergence parameters.

WARNING: Trying smaller step size, pe step size 10, 5 ... 

WARNING: Element Ca is contained in Anhydrite (which has 0.0 mass),	
but is not in solution or other phases.
WARNING: Element Ca is contained in Antarcticite (which has 0.0 mass),	
but is not in solution or other phases.
WARNING: Element Cl is contained in Antarcticite (which has 0.0 mass),	
but is not in solution or other phases.
WARNING: Element K is contained in Arcanite (which has 0.0 mass),	
but is not in solution or other phases.
WARNING: Element Ca is contained in Bassanite (which has 0.0 mass),	
but is not in solution or other phases.
WARNING: Element Cl is contained in Bischofite (which has 0.0 mass),	
but is not in solution or other phases.
WARNING: Element Na is contained in Bloedite (which has 0.0 mass),	
but is not in solution or other phases.
WARNING: Element Cl is contained in Carnallite (which has 0.0 mass),	
but is not in solution or other phases.
WARNING: Element K is contained in Carnallite (which has 0.0 mass),	
but is not in solution or other phases.
WARNING: Element K is contained in Glaserite (which has 0.0 mass),	
but is not in solution or other phases.
WARNING: Element Na is contained in Glaserite (which has 0.0 mass),	
but is not in solution or other phases.
WARNING: Element Ca is contained in Glauberite (which has 0.0 mass),	
but is not in solution or other phases.
WARNING: Element Na is contained in Glauberite (which has 0.0 mass),	
but is not in solution or other phases.
WARNING: Element Ca is contained in Gypsum (which has 0.0 mass),	
but is not in solution or other phases.
WARNING: Element Cl is contained in Halite (which has 0.0 mass),	
but is not in solution or other phases.
WARNING: Element Na is contained in Halite (which has 0.0 mass),	
but is not in solution or other phases.
WARNING: Element Cl is contained in Hydrohalite (which has 0.0 mass),	
but is not in solution or other phases.
WARNING: Element Na is contained in Hydrohalite (which has 0.0 mass),	
but is not in solution or other phases.
WARNING: Element Cl is contained in Kainite (which has 0.0 mass),	
but is not in solution or other phases.
WARNING: Element K is contained in Kainite (which has 0.0 mass),	
but is not in solution or other phases.
WARNING: Element Ca is contained in Labile_Salt (which has 0.0 mass),	
but is not in solution or other phases.
Using solution 1.	
Using pure phase assemblage 1.	
Using temperature 1.	

-------------------------------Phase assemblage--------------------------------

                                                      Moles in assemblage
Phase               SI  log IAP  log K(T, P)   Initial       Final       Delta

Anhydrite            Element not present.    0.000e+00           0   0.000e+00
Antarcticite         Element not present.    0.000e+00           0   0.000e+00
Arcanite             Element not present.    0.000e+00           0   0.000e+00
Bassanite            Element not present.    0.000e+00           0   0.000e+00
Bischofite           Element not present.    0.000e+00           0   0.000e+00
Bloedite             Element not present.    0.000e+00           0   0.000e+00
Carnallite           Element not present.    0.000e+00           0   0.000e+00
Epsomite         -1.86    -3.95     -2.09    0.000e+00           0   0.000e+00
Glaserite            Element not present.    0.000e+00           0   0.000e+00
Glauberite           Element not present.    0.000e+00           0   0.000e+00
Gypsum               Element not present.    0.000e+00           0   0.000e+00
Halite               Element not present.    0.000e+00           0   0.000e+00
Hexahydrite      -2.36    -3.95     -1.59    0.000e+00           0   0.000e+00
Hydrohalite          Element not present.    0.000e+00           0   0.000e+00
Ice(s)            0.00    -0.00     -0.00    0.000e+00   4.423e+01   4.423e+01
Kainite              Element not present.    0.000e+00           0   0.000e+00
Kieserite        -4.59    -3.94      0.64    0.000e+00           0   0.000e+00
Labile_Salt          Element not present.    0.000e+00           0   0.000e+00
Langbeinite          Element not present.    0.000e+00           0   0.000e+00
Leonite              Element not present.    0.000e+00           0   0.000e+00
Meridianiite     -1.77    -3.95     -2.18    0.000e+00           0   0.000e+00
MgCl2:12H2O          Element not present.    0.000e+00           0   0.000e+00
MgCl2:8H2O           Element not present.    0.000e+00           0   0.000e+00
Mirabilite           Element not present.    0.000e+00           0   0.000e+00
Na2SO4:7H2O          Element not present.    0.000e+00           0   0.000e+00
Pentahydrite     -2.87    -3.95     -1.08    0.000e+00           0   0.000e+00
Picromerite          Element not present.    0.000e+00           0   0.000e+00
Polyhalite           Element not present.    0.000e+00           0   0.000e+00
Starkeyite       -3.45    -3.94     -0.50    0.000e+00           0   0.000e+00
Sylvite              Element not present.    0.000e+00           0   0.000e+00
Syngenite            Element not present.    0.000e+00           0   0.000e+00
Tachyhydrite         Element not present.    0.000e+00           0   0.000e+00
Thenardite           Element not present.    0.000e+00           0   0.000e+00

-----------------------------Solution composition------------------------------

	Elements           Molality       Moles

	Mg                4.084e-02   8.300e-03
	S                 4.084e-02   8.300e-03

----------------------------Description of solution----------------------------

                                       pH  =   7.000      Charge balance
                                       pe  =   4.000      Adjusted to redox equilibrium
                        Activity of water  =   0.999
                 Ionic strength (mol/kgw)  =   1.634e-01
                       Mass of water (kg)  =   2.032e-01
                 Total alkalinity (eq/kg)  =  -1.344e-10
                         Temperature (°C)  =  -0.10
                  Electrical balance (eq)  =   2.731e-11
 Percent error, 100*(Cat-|An|)/(Cat+|An|)  =   0.00
                               Iterations  =  15 (1419 overall)
                         Gamma iterations  =   1
                      Osmotic coefficient  =   0.65838
                                  Total H  = 2.256139e+01
                                  Total O  = 1.131389e+01

----------------------------Distribution of species----------------------------

                                                    Unscaled  Unscaled
                                Unscaled       Log       Log       Log    mole V
   Species          Molality    Activity  Molality  Activity     Gamma    cm³/mol

   H+              1.431e-07   1.000e-07    -6.844    -7.000    -0.156      0.00
   OH-             1.429e-07   9.990e-08    -6.845    -7.000    -0.156     (0)  
   H2O             5.551e+01   9.990e-01     1.744    -0.000     0.000     18.02
Mg            4.084e-02
   Mg+2            4.084e-02   1.068e-02    -1.389    -1.972    -0.583     (0)  
S(6)          4.084e-02
   SO4-2           4.084e-02   1.068e-02    -1.389    -1.972    -0.583     (0)  

------------------------------Saturation indices-------------------------------

  Phase               SI** log IAP   log K(273 K,   1 atm)

  Epsomite         -1.86     -3.95   -2.09  MgSO4:7H2O
  Hexahydrite      -2.36     -3.95   -1.59  MgSO4:6H2O
  Ice(s)            0.00     -0.00   -0.00  H2O
  Kieserite        -4.59     -3.94    0.64  MgSO4:H2O
  Meridianiite     -1.77     -3.95   -2.18  MgSO4:11H2O
  Pentahydrite     -2.87     -3.95   -1.08  MgSO4:5H2O
  Starkeyite       -3.45     -3.94   -0.50  MgSO4:4H2O

**For a gas, SI = log10(fugacity). Fugacity = pressure * phi / 1 atm.
  For ideal gases, phi = 1.

Reaction step 3.

Using solution 1.	
Using pure phase assemblage 1.	
Using temperature 1.	

-------------------------------Phase assemblage--------------------------------

                                                      Moles in assemblage
Phase               SI  log IAP  log K(T, P)   Initial       Final       Delta

Anhydrite            Element not present.    0.000e+00           0   0.000e+00
Antarcticite         Element not present.    0.000e+00           0   0.000e+00
Arcanite             Element not present.    0.000e+00           0   0.000e+00
Bassanite            Element not present.    0.000e+00           0   0.000e+00
Bischofite           Element not present.    0.000e+00           0   0.000e+00
Bloedite             Element not present.    0.000e+00           0   0.000e+00
Carnallite           Element not present.    0.000e+00           0   0.000e+00
Epsomite         -1.48    -3.57     -2.09    0.000e+00           0   0.000e+00
Glaserite            Element not present.    0.000e+00           0   0.000e+00
Glauberite           Element not present.    0.000e+00           0   0.000e+00
Gypsum               Element not present.    0.000e+00           0   0.000e+00
Halite               Element not present.    0.000e+00           0   0.000e+00
Hexahydrite      -1.98    -3.57     -1.59    0.000e+00           0   0.000e+00
Hydrohalite          Element not present.    0.000e+00           0   0.000e+00
Ice(s)            0.00    -0.00     -0.00    0.000e+00   5.029e+01   5.029e+01
Kainite              Element not present.    0.000e+00           0   0.000e+00
Kieserite        -4.21    -3.56      0.64    0.000e+00           0   0.000e+00
Labile_Salt          Element not present.    0.000e+00           0   0.000e+00
Langbeinite          Element not present.    0.000e+00           0   0.000e+00
Leonite              Element not present.    0.000e+00           0   0.000e+00
Meridianiite     -1.38    -3.57     -2.19    0.000e+00           0   0.000e+00
MgCl2:12H2O          Element not present.    0.000e+00           0   0.000e+00
MgCl2:8H2O           Element not present.    0.000e+00           0   0.000e+00
Mirabilite           Element not present.    0.000e+00           0   0.000e+00
Na2SO4:7H2O          Element not present.    0.000e+00           0   0.000e+00
Pentahydrite     -2.49    -3.57     -1.08    0.000e+00           0   0.000e+00
Picromerite          Element not present.    0.000e+00           0   0.000e+00
Polyhalite           Element not present.    0.000e+00           0   0.000e+00
Starkeyite       -3.07    -3.57     -0.50    0.000e+00           0   0.000e+00
Sylvite              Element not present.    0.000e+00           0   0.000e+00
Syngenite            Element not present.    0.000e+00           0   0.000e+00
Tachyhydrite         Element not present.    0.000e+00           0   0.000e+00
Thenardite           Element not present.    0.000e+00           0   0.000e+00

-----------------------------Solution composition------------------------------

	Elements           Molality       Moles

	Mg                8.833e-02   8.300e-03
	S                 8.833e-02   8.300e-03

----------------------------Description of solution----------------------------

                                       pH  =   7.000      Charge balance
                                       pe  =   4.000      Adjusted to redox equilibrium
                        Activity of water  =   0.998
                 Ionic strength (mol/kgw)  =   3.533e-01
                       Mass of water (kg)  =   9.396e-02
                 Total alkalinity (eq/kg)  =  -2.906e-10
                         Temperature (°C)  =  -0.20
                  Electrical balance (eq)  =   2.731e-11
 Percent error, 100*(Cat-|An|)/(Cat+|An|)  =   0.00
                               Iterations  =  16 (1420 overall)
                         Gamma iterations  =   1
                      Osmotic coefficient  =   0.60887
                                  Total H  = 1.043145e+01
                                  Total O  = 5.248927e+00

----------------------------Distribution of species----------------------------

                                                    Unscaled  Unscaled
                                Unscaled       Log       Log       Log    mole V
   Species          Molality    Activity  Molality  Activity     Gamma    cm³/mol

   H+              1.637e-07   9.999e-08    -6.786    -7.000    -0.214      0.00
   OH-             1.634e-07   9.981e-08    -6.787    -7.001    -0.214     (0)  
   H2O             5.551e+01   9.981e-01     1.744    -0.001     0.000     18.02
Mg            8.833e-02
   Mg+2            8.833e-02   1.656e-02    -1.054    -1.781    -0.727     (0)  
S(6)          8.833e-02
   SO4-2           8.833e-02   1.656e-02    -1.054    -1.781    -0.727     (0)  

------------------------------Saturation indices-------------------------------

  Phase               SI** log IAP   log K(272 K,   1 atm)

  Epsomite         -1.48     -3.57   -2.09  MgSO4:7H2O
  Hexahydrite      -1.98     -3.57   -1.59  MgSO4:6H2O
  Ice(s)            0.00     -0.00   -0.00  H2O
  Kieserite        -4.21     -3.56    0.64  MgSO4:H2O
  Meridianiite     -1.38     -3.57   -2.19  MgSO4:11H2O
  Pentahydrite     -2.49     -3.57   -1.08  MgSO4:5H2O
  Starkeyite       -3.07     -3.57   -0.50  MgSO4:4H2O

**For a gas, SI = log10(fugacity). Fugacity = pressure * phi / 1 atm.
  For ideal gases, phi = 1.

Reaction step 4.

Using solution 1.	
Using pure phase assemblage 1.	
Using temperature 1.	

-------------------------------Phase assemblage--------------------------------

                                                      Moles in assemblage
Phase               SI  log IAP  log K(T, P)   Initial       Final       Delta

Anhydrite            Element not present.    0.000e+00           0   0.000e+00
Antarcticite         Element not present.    0.000e+00           0   0.000e+00
Arcanite             Element not present.    0.000e+00           0   0.000e+00
Bassanite            Element not present.    0.000e+00           0   0.000e+00
Bischofite           Element not present.    0.000e+00           0   0.000e+00
Bloedite             Element not present.    0.000e+00           0   0.000e+00
Carnallite           Element not present.    0.000e+00           0   0.000e+00
Epsomite         -1.27    -3.36     -2.09    0.000e+00           0   0.000e+00
Glaserite            Element not present.    0.000e+00           0   0.000e+00
Glauberite           Element not present.    0.000e+00           0   0.000e+00
Gypsum               Element not present.    0.000e+00           0   0.000e+00
Halite               Element not present.    0.000e+00           0   0.000e+00
Hexahydrite      -1.77    -3.36     -1.59    0.000e+00           0   0.000e+00
Hydrohalite          Element not present.    0.000e+00           0   0.000e+00
Ice(s)            0.00    -0.00     -0.00    0.000e+00   5.218e+01   5.218e+01
Kainite              Element not present.    0.000e+00           0   0.000e+00
Kieserite        -4.00    -3.35      0.65    0.000e+00           0   0.000e+00
Labile_Salt          Element not present.    0.000e+00           0   0.000e+00
Langbeinite          Element not present.    0.000e+00           0   0.000e+00
Leonite              Element not present.    0.000e+00           0   0.000e+00
Meridianiite     -1.18    -3.37     -2.19    0.000e+00           0   0.000e+00
MgCl2:12H2O          Element not present.    0.000e+00           0   0.000e+00
MgCl2:8H2O           Element not present.    0.000e+00           0   0.000e+00
Mirabilite           Element not present.    0.000e+00           0   0.000e+00
Na2SO4:7H2O          Element not present.    0.000e+00           0   0.000e+00
Pentahydrite     -2.28    -3.36     -1.08    0.000e+00           0   0.000e+00
Picromerite          Element not present.    0.000e+00           0   0.000e+00
Polyhalite           Element not present.    0.000e+00           0   0.000e+00
Starkeyite       -2.86    -3.36     -0.50    0.000e+00           0   0.000e+00
Sylvite              Element not present.    0.000e+00           0   0.000e+00
Syngenite            Element not present.    0.000e+00           0   0.000e+00
Tachyhydrite         Element not present.    0.000e+00           0   0.000e+00
Thenardite           Element not present.    0.000e+00           0   0.000e+00

-----------------------------Solution composition------------------------------

	Elements           Molality       Moles

	Mg                1.385e-01   8.300e-03
	S                 1.385e-01   8.300e-03

----------------------------Description of solution----------------------------

                                       pH  =   7.000      Charge balance
                                       pe  =   4.000      Adjusted to redox equilibrium
                        Activity of water  =   0.997
                 Ionic strength (mol/kgw)  =   5.541e-01
                       Mass of water (kg)  =   5.992e-02
                 Total alkalinity (eq/kg)  =  -4.557e-10
                         Temperature (°C)  =  -0.30
                  Electrical balance (eq)  =   2.731e-11
 Percent error, 100*(Cat-|An|)/(Cat+|An|)  =   0.00
                               Iterations  =  19 (1423 overall)
                         Gamma iterations  =   1
                      Osmotic coefficient  =   0.58249
                                  Total H  = 6.652491e+00
                                  Total O  = 3.359445e+00

----------------------------Distribution of species----------------------------

                                                    Unscaled  Unscaled
                                Unscaled       Log       Log       Log    mole V
   Species          Molality    Activity  Molality  Activity     Gamma    cm³/mol

   H+              1.804e-07   9.998e-08    -6.744    -7.000    -0.256      0.00
   OH-             1.800e-07   9.973e-08    -6.745    -7.001    -0.256     (0)  
   H2O             5.551e+01   9.971e-01     1.744    -0.001     0.000     18.02
Mg            1.385e-01
   Mg+2            1.385e-01   2.109e-02    -0.859    -1.676    -0.817     (0)  
S(6)          1.385e-01
   SO4-2           1.385e-01   2.109e-02    -0.859    -1.676    -0.817     (0)  

------------------------------Saturation indices-------------------------------

  Phase               SI** log IAP   log K(272 K,   1 atm)

  Epsomite         -1.27     -3.36   -2.09  MgSO4:7H2O
  Hexahydrite      -1.77     -3.36   -1.59  MgSO4:6H2O
  Ice(s)            0.00     -0.00   -0.00  H2O
  Kieserite        -4.00     -3.35    0.65  MgSO4:H2O
  Meridianiite     -1.18     -3.37   -2.19  MgSO4:11H2O
  Pentahydrite     -2.28     -3.36   -1.08  MgSO4:5H2O
  Starkeyite       -2.86     -3.36   -0.50  MgSO4:4H2O

**For a gas, SI = log10(fugacity). Fugacity = pressure * phi / 1 atm.
  For ideal gases, phi = 1.

Reaction step 5.

Using solution 1.	
Using pure phase assemblage 1.	
Using temperature 1.	

-------------------------------Phase assemblage--------------------------------

                                                      Moles in assemblage
Phase               SI  log IAP  log K(T, P)   Initial       Final       Delta

Anhydrite            Element not present.    0.000e+00           0   0.000e+00
Antarcticite         Element not present.    0.000e+00           0   0.000e+00
Arcanite             Element not present.    0.000e+00           0   0.000e+00
Bassanite            Element not present.    0.000e+00           0   0.000e+00
Bischofite           Element not present.    0.000e+00           0   0.000e+00
Bloedite             Element not present.    0.000e+00           0   0.000e+00
Carnallite           Element not present.    0.000e+00           0   0.000e+00
Epsomite         -1.13    -3.22     -2.09    0.000e+00           0   0.000e+00
Glaserite            Element not present.    0.000e+00           0   0.000e+00
Glauberite           Element not present.    0.000e+00           0   0.000e+00
Gypsum               Element not present.    0.000e+00           0   0.000e+00
Halite               Element not present.    0.000e+00           0   0.000e+00
Hexahydrite      -1.63    -3.22     -1.59    0.000e+00           0   0.000e+00
Hydrohalite          Element not present.    0.000e+00           0   0.000e+00
Ice(s)            0.00    -0.00     -0.00    0.000e+00   5.309e+01   5.309e+01
Kainite              Element not present.    0.000e+00           0   0.000e+00
Kieserite        -3.86    -3.21      0.65    0.000e+00           0   0.000e+00
Labile_Salt          Element not present.    0.000e+00           0   0.000e+00
Langbeinite          Element not present.    0.000e+00           0   0.000e+00
Leonite              Element not present.    0.000e+00           0   0.000e+00
Meridianiite     -1.03    -3.23     -2.19    0.000e+00           0   0.000e+00
MgCl2:12H2O          Element not present.    0.000e+00           0   0.000e+00
MgCl2:8H2O           Element not present.    0.000e+00           0   0.000e+00
Mirabilite           Element not present.    0.000e+00           0   0.000e+00
Na2SO4:7H2O          Element not present.    0.000e+00           0   0.000e+00
Pentahydrite     -2.14    -3.22     -1.08    0.000e+00           0   0.000e+00
Picromerite          Element not present.    0.000e+00           0   0.000e+00
Polyhalite           Element not present.    0.000e+00           0   0.000e+00
Starkeyite       -2.72    -3.22     -0.50    0.000e+00           0   0.000e+00
Sylvite              Element not present.    0.000e+00           0   0.000e+00
Syngenite            Element not present.    0.000e+00           0   0.000e+00
Tachyhydrite         Element not present.    0.000e+00           0   0.000e+00
Thenardite           Element not present.    0.000e+00           0   0.000e+00

-----------------------------Solution composition------------------------------

	Elements           Molality       Moles

	Mg                1.902e-01   8.300e-03
	S                 1.902e-01   8.300e-03

----------------------------Description of solution----------------------------

                                       pH  =   7.000      Charge balance
                                       pe  =   4.000      Adjusted to redox equilibrium
                        Activity of water  =   0.996
                 Ionic strength (mol/kgw)  =   7.608e-01
                       Mass of water (kg)  =   4.364e-02
                 Total alkalinity (eq/kg)  =  -6.258e-10
                         Temperature (°C)  =  -0.40
                  Electrical balance (eq)  =   2.731e-11
 Percent error, 100*(Cat-|An|)/(Cat+|An|)  =   0.00
                               Iterations  =  21 (1425 overall)
                         Gamma iterations  =   1
                      Osmotic coefficient  =   0.56564
                                  Total H  = 4.844698e+00
                                  Total O  = 2.455549e+00

----------------------------Distribution of species----------------------------

                                                    Unscaled  Unscaled
                                Unscaled       Log       Log       Log    mole V
   Species          Molality    Activity  Molality  Activity     Gamma    cm³/mol

   H+              1.949e-07   9.997e-08    -6.710    -7.000    -0.290      0.00
   OH-             1.943e-07   9.965e-08    -6.712    -7.002    -0.290     (0)  
   H2O             5.551e+01   9.961e-01     1.744    -0.002     0.000     18.02
Mg            1.902e-01
   Mg+2            1.902e-01   2.488e-02    -0.721    -1.604    -0.883     (0)  
S(6)          1.902e-01
   SO4-2           1.902e-01   2.488e-02    -0.721    -1.604    -0.883     (0)  

------------------------------Saturation indices-------------------------------

  Phase               SI** log IAP   log K(272 K,   1 atm)

  Epsomite         -1.13     -3.22   -2.09  MgSO4:7H2O
  Hexahydrite      -1.63     -3.22   -1.59  MgSO4:6H2O
  Ice(s)            0.00     -0.00   -0.00  H2O
  Kieserite        -3.86     -3.21    0.65  MgSO4:H2O
  Meridianiite     -1.03     -3.23   -2.19  MgSO4:11H2O
  Pentahydrite     -2.14     -3.22   -1.08  MgSO4:5H2O
  Starkeyite       -2.72     -3.22   -0.50  MgSO4:4H2O

**For a gas, SI = log10(fugacity). Fugacity = pressure * phi / 1 atm.
  For ideal gases, phi = 1.

Reaction step 6.

Using solution 1.	
Using pure phase assemblage 1.	
Using temperature 1.	

-------------------------------Phase assemblage--------------------------------

                                                      Moles in assemblage
Phase               SI  log IAP  log K(T, P)   Initial       Final       Delta

Anhydrite            Element not present.    0.000e+00           0   0.000e+00
Antarcticite         Element not present.    0.000e+00           0   0.000e+00
Arcanite             Element not present.    0.000e+00           0   0.000e+00
Bassanite            Element not present.    0.000e+00           0   0.000e+00
Bischofite           Element not present.    0.000e+00           0   0.000e+00
Bloedite             Element not present.    0.000e+00           0   0.000e+00
Carnallite           Element not present.    0.000e+00           0   0.000e+00
Epsomite         -1.02    -3.11     -2.09    0.000e+00           0   0.000e+00
Glaserite            Element not present.    0.000e+00           0   0.000e+00
Glauberite           Element not present.    0.000e+00           0   0.000e+00
Gypsum               Element not present.    0.000e+00           0   0.000e+00
Halite               Element not present.    0.000e+00           0   0.000e+00
Hexahydrite      -1.53    -3.11     -1.59    0.000e+00           0   0.000e+00
Hydrohalite          Element not present.    0.000e+00           0   0.000e+00
Ice(s)            0.00    -0.00     -0.00    0.000e+00   5.361e+01   5.361e+01
Kainite              Element not present.    0.000e+00           0   0.000e+00
Kieserite        -3.75    -3.10      0.65    0.000e+00           0   0.000e+00
Labile_Salt          Element not present.    0.000e+00           0   0.000e+00
Langbeinite          Element not present.    0.000e+00           0   0.000e+00
Leonite              Element not present.    0.000e+00           0   0.000e+00
Meridianiite     -0.92    -3.12     -2.20    0.000e+00           0   0.000e+00
MgCl2:12H2O          Element not present.    0.000e+00           0   0.000e+00
MgCl2:8H2O           Element not present.    0.000e+00           0   0.000e+00
Mirabilite           Element not present.    0.000e+00           0   0.000e+00
Na2SO4:7H2O          Element not present.    0.000e+00           0   0.000e+00
Pentahydrite     -2.03    -3.11     -1.08    0.000e+00           0   0.000e+00
Picromerite          Element not present.    0.000e+00           0   0.000e+00
Polyhalite           Element not present.    0.000e+00           0   0.000e+00
Starkeyite       -2.61    -3.11     -0.49    0.000e+00           0   0.000e+00
Sylvite              Element not present.    0.000e+00           0   0.000e+00
Syngenite            Element not present.    0.000e+00           0   0.000e+00
Tachyhydrite         Element not present.    0.000e+00           0   0.000e+00
Thenardite           Element not present.    0.000e+00           0   0.000e+00

-----------------------------Solution composition------------------------------

	Elements           Molality       Moles

	Mg                2.429e-01   8.300e-03
	S                 2.429e-01   8.300e-03

----------------------------Description of solution----------------------------

                                       pH  =   7.000      Charge balance
                                       pe  =   4.000      Adjusted to redox equilibrium
                        Activity of water  =   0.995
                 Ionic strength (mol/kgw)  =   9.716e-01
                       Mass of water (kg)  =   3.417e-02
                 Total alkalinity (eq/kg)  =  -7.992e-10
                         Temperature (°C)  =  -0.50
                  Electrical balance (eq)  =   2.731e-11
 Percent error, 100*(Cat-|An|)/(Cat+|An|)  =   0.00
                               Iterations  =  22 (1426 overall)
                         Gamma iterations  =   1
                      Osmotic coefficient  =   0.55366
                                  Total H  = 3.793441e+00
                                  Total O  = 1.929921e+00

----------------------------Distribution of species----------------------------

                                                    Unscaled  Unscaled
                                Unscaled       Log       Log       Log    mole V
   Species          Molality    Activity  Molality  Activity     Gamma    cm³/mol

   H+              2.079e-07   9.995e-08    -6.682    -7.000    -0.318      0.00
   OH-             2.071e-07   9.957e-08    -6.684    -7.002    -0.318     (0)  
   H2O             5.551e+01   9.952e-01     1.744    -0.002     0.000     18.02
Mg            2.429e-01
   Mg+2            2.429e-01   2.819e-02    -0.615    -1.550    -0.935     (0)  
S(6)          2.429e-01
   SO4-2           2.429e-01   2.819e-02    -0.615    -1.550    -0.935     (0)  

------------------------------Saturation indices-------------------------------

  Phase               SI** log IAP   log K(272 K,   1 atm)

  Epsomite         -1.02     -3.11   -2.09  MgSO4:7H2O
  Hexahydrite      -1.53     -3.11   -1.59  MgSO4:6H2O
  Ice(s)            0.00     -0.00   -0.00  H2O
  Kieserite        -3.75     -3.10    0.65  MgSO4:H2O
  Meridianiite     -0.92     -3.12   -2.20  MgSO4:11H2O
  Pentahydrite     -2.03     -3.11   -1.08  MgSO4:5H2O
  Starkeyite       -2.61     -3.11   -0.49  MgSO4:4H2O

**For a gas, SI = log10(fugacity). Fugacity = pressure * phi / 1 atm.
  For ideal gases, phi = 1.

Reaction step 7.

Using solution 1.	
Using pure phase assemblage 1.	
Using temperature 1.	

-------------------------------Phase assemblage--------------------------------

                                                      Moles in assemblage
Phase               SI  log IAP  log K(T, P)   Initial       Final       Delta

Anhydrite            Element not present.    0.000e+00           0   0.000e+00
Antarcticite         Element not present.    0.000e+00           0   0.000e+00
Arcanite             Element not present.    0.000e+00           0   0.000e+00
Bassanite            Element not present.    0.000e+00           0   0.000e+00
Bischofite           Element not present.    0.000e+00           0   0.000e+00
Bloedite             Element not present.    0.000e+00           0   0.000e+00
Carnallite           Element not present.    0.000e+00           0   0.000e+00
Epsomite         -0.94    -3.03     -2.09    0.000e+00           0   0.000e+00
Glaserite            Element not present.    0.000e+00           0   0.000e+00
Glauberite           Element not present.    0.000e+00           0   0.000e+00
Gypsum               Element not present.    0.000e+00           0   0.000e+00
Halite               Element not present.    0.000e+00           0   0.000e+00
Hexahydrite      -1.44    -3.03     -1.59    0.000e+00           0   0.000e+00
Hydrohalite          Element not present.    0.000e+00           0   0.000e+00
Ice(s)            0.00    -0.00     -0.00    0.000e+00   5.395e+01   5.395e+01
Kainite              Element not present.    0.000e+00           0   0.000e+00
Kieserite        -3.67    -3.02      0.66    0.000e+00           0   0.000e+00
Labile_Salt          Element not present.    0.000e+00           0   0.000e+00
Langbeinite          Element not present.    0.000e+00           0   0.000e+00
Leonite              Element not present.    0.000e+00           0   0.000e+00
Meridianiite     -0.84    -3.04     -2.20    0.000e+00           0   0.000e+00
MgCl2:12H2O          Element not present.    0.000e+00           0   0.000e+00
MgCl2:8H2O           Element not present.    0.000e+00           0   0.000e+00
Mirabilite           Element not present.    0.000e+00           0   0.000e+00
Na2SO4:7H2O          Element not present.    0.000e+00           0   0.000e+00
Pentahydrite     -1.95    -3.03     -1.07    0.000e+00           0   0.000e+00
Picromerite          Element not present.    0.000e+00           0   0.000e+00
Polyhalite           Element not present.    0.000e+00           0   0.000e+00
Starkeyite       -2.53    -3.02     -0.49    0.000e+00           0   0.000e+00
Sylvite              Element not present.    0.000e+00           0   0.000e+00
Syngenite            Element not present.    0.000e+00           0   0.000e+00
Tachyhydrite         Element not present.    0.000e+00           0   0.000e+00
Thenardite           Element not present.    0.000e+00           0   0.000e+00

-----------------------------Solution composition------------------------------

	Elements           Molality       Moles

	Mg                2.964e-01   8.300e-03
	S                 2.964e-01   8.300e-03

----------------------------Description of solution----------------------------

                                       pH  =   7.000      Charge balance
                                       pe  =   4.000      Adjusted to redox equilibrium
                        Activity of water  =   0.994
                 Ionic strength (mol/kgw)  =   1.186e+00
                       Mass of water (kg)  =   2.800e-02
                 Total alkalinity (eq/kg)  =  -9.752e-10
                         Temperature (°C)  =  -0.60
                  Electrical balance (eq)  =   2.731e-11
 Percent error, 100*(Cat-|An|)/(Cat+|An|)  =   0.00
                               Iterations  =  33 (1437 overall)
                         Gamma iterations  =   1
                      Osmotic coefficient  =   0.54456
                                  Total H  = 3.109044e+00
                                  Total O  = 1.587722e+00

----------------------------Distribution of species----------------------------

                                                    Unscaled  Unscaled
                                Unscaled       Log       Log       Log    mole V
   Species          Molality    Activity  Molality  Activity     Gamma    cm³/mol

   H+              2.199e-07   9.993e-08    -6.658    -7.000    -0.343      0.00
   OH-             2.190e-07   9.949e-08    -6.660    -7.002    -0.343     (0)  
   H2O             5.551e+01   9.942e-01     1.744    -0.003     0.000     18.02
Mg            2.964e-01
   Mg+2            2.964e-01   3.117e-02    -0.528    -1.506    -0.978     (0)  
S(6)          2.964e-01
   SO4-2           2.964e-01   3.117e-02    -0.528    -1.506    -0.978     (0)  

------------------------------Saturation indices-------------------------------

  Phase               SI** log IAP   log K(272 K,   1 atm)

  Epsomite         -0.94     -3.03   -2.09  MgSO4:7H2O
  Hexahydrite      -1.44     -3.03   -1.59  MgSO4:6H2O
  Ice(s)            0.00     -0.00   -0.00  H2O
  Kieserite        -3.67     -3.02    0.66  MgSO4:H2O
  Meridianiite     -0.84     -3.04   -2.20  MgSO4:11H2O
  Pentahydrite     -1.95     -3.03   -1.07  MgSO4:5H2O
  Starkeyite       -2.53     -3.02   -0.49  MgSO4:4H2O

**For a gas, SI = log10(fugacity). Fugacity = pressure * phi / 1 atm.
  For ideal gases, phi = 1.

Reaction step 8.

Using solution 1.	
Using pure phase assemblage 1.	
Using temperature 1.	

-------------------------------Phase assemblage--------------------------------

                                                      Moles in assemblage
Phase               SI  log IAP  log K(T, P)   Initial       Final       Delta

Anhydrite            Element not present.    0.000e+00           0   0.000e+00
Antarcticite         Element not present.    0.000e+00           0   0.000e+00
Arcanite             Element not present.    0.000e+00           0   0.000e+00
Bassanite            Element not present.    0.000e+00           0   0.000e+00
Bischofite           Element not present.    0.000e+00           0   0.000e+00
Bloedite             Element not present.    0.000e+00           0   0.000e+00
Carnallite           Element not present.    0.000e+00           0   0.000e+00
Epsomite         -0.87    -2.96     -2.09    0.000e+00           0   0.000e+00
Glaserite            Element not present.    0.000e+00           0   0.000e+00
Glauberite           Element not present.    0.000e+00           0   0.000e+00
Gypsum               Element not present.    0.000e+00           0   0.000e+00
Halite               Element not present.    0.000e+00           0   0.000e+00
Hexahydrite      -1.37    -2.96     -1.59    0.000e+00           0   0.000e+00
Hydrohalite          Element not present.    0.000e+00           0   0.000e+00
Ice(s)            0.00    -0.00     -0.00    0.000e+00   5.419e+01   5.419e+01
Kainite              Element not present.    0.000e+00           0   0.000e+00
Kieserite        -3.60    -2.94      0.66    0.000e+00           0   0.000e+00
Labile_Salt          Element not present.    0.000e+00           0   0.000e+00
Langbeinite          Element not present.    0.000e+00           0   0.000e+00
Leonite              Element not present.    0.000e+00           0   0.000e+00
Meridianiite     -0.77    -2.97     -2.21    0.000e+00           0   0.000e+00
MgCl2:12H2O          Element not present.    0.000e+00           0   0.000e+00
MgCl2:8H2O           Element not present.    0.000e+00           0   0.000e+00
Mirabilite           Element not present.    0.000e+00           0   0.000e+00
Na2SO4:7H2O          Element not present.    0.000e+00           0   0.000e+00
Pentahydrite     -1.88    -2.95     -1.07    0.000e+00           0   0.000e+00
Picromerite          Element not present.    0.000e+00           0   0.000e+00
Polyhalite           Element not present.    0.000e+00           0   0.000e+00
Starkeyite       -2.46    -2.95     -0.49    0.000e+00           0   0.000e+00
Sylvite              Element not present.    0.000e+00           0   0.000e+00
Syngenite            Element not present.    0.000e+00           0   0.000e+00
Tachyhydrite         Element not present.    0.000e+00           0   0.000e+00
Thenardite           Element not present.    0.000e+00           0   0.000e+00

-----------------------------Solution composition------------------------------

	Elements           Molality       Moles

	Mg                3.504e-01   8.300e-03
	S                 3.504e-01   8.300e-03

----------------------------Description of solution----------------------------

                                       pH  =   7.000      Charge balance
                                       pe  =   4.000      Adjusted to redox equilibrium
                        Activity of water  =   0.993
                 Ionic strength (mol/kgw)  =   1.402e+00
                       Mass of water (kg)  =   2.369e-02
                 Total alkalinity (eq/kg)  =  -1.153e-09
                         Temperature (°C)  =  -0.70
                  Electrical balance (eq)  =   2.731e-11
 Percent error, 100*(Cat-|An|)/(Cat+|An|)  =   0.00
                               Iterations  =  37 (1441 overall)
                         Gamma iterations  =   1
                      Osmotic coefficient  =   0.53739
                                  Total H  = 2.629640e+00
                                  Total O  = 1.348020e+00

----------------------------Distribution of species----------------------------

                                                    Unscaled  Unscaled
                                Unscaled       Log       Log       Log    mole V
   Species          Molality    Activity  Molality  Activity     Gamma    cm³/mol

   H+              2.311e-07   9.991e-08    -6.636    -7.000    -0.364      0.00
   OH-             2.299e-07   9.941e-08    -6.638    -7.003    -0.364     (0)  
   H2O             5.551e+01   9.932e-01     1.744    -0.003     0.000     18.02
Mg            3.504e-01
   Mg+2            3.504e-01   3.388e-02    -0.455    -1.470    -1.015     (0)  
S(6)          3.504e-01
   SO4-2           3.504e-01   3.388e-02    -0.455    -1.470    -1.015     (0)  

------------------------------Saturation indices-------------------------------

  Phase               SI** log IAP   log K(272 K,   1 atm)

  Epsomite         -0.87     -2.96   -2.09  MgSO4:7H2O
  Hexahydrite      -1.37     -2.96   -1.59  MgSO4:6H2O
  Ice(s)            0.00     -0.00   -0.00  H2O
  Kieserite        -3.60     -2.94    0.66  MgSO4:H2O
  Meridianiite     -0.77     -2.97   -2.21  MgSO4:11H2O
  Pentahydrite     -1.88     -2.95   -1.07  MgSO4:5H2O
  Starkeyite       -2.46     -2.95   -0.49  MgSO4:4H2O

**For a gas, SI = log10(fugacity). Fugacity = pressure * phi / 1 atm.
  For ideal gases, phi = 1.

Reaction step 9.

Using solution 1.	
Using pure phase assemblage 1.	
Using temperature 1.	

-------------------------------Phase assemblage--------------------------------

                                                      Moles in assemblage
Phase               SI  log IAP  log K(T, P)   Initial       Final       Delta

Anhydrite            Element not present.    0.000e+00           0   0.000e+00
Antarcticite         Element not present.    0.000e+00           0   0.000e+00
Arcanite             Element not present.    0.000e+00           0   0.000e+00
Bassanite            Element not present.    0.000e+00           0   0.000e+00
Bischofite           Element not present.    0.000e+00           0   0.000e+00
Bloedite             Element not present.    0.000e+00           0   0.000e+00
Carnallite           Element not present.    0.000e+00           0   0.000e+00
Epsomite         -0.81    -2.90     -2.10    0.000e+00           0   0.000e+00
Glaserite            Element not present.    0.000e+00           0   0.000e+00
Glauberite           Element not present.    0.000e+00           0   0.000e+00
Gypsum               Element not present.    0.000e+00           0   0.000e+00
Halite               Element not present.    0.000e+00           0   0.000e+00
Hexahydrite      -1.31    -2.90     -1.59    0.000e+00           0   0.000e+00
Hydrohalite          Element not present.    0.000e+00           0   0.000e+00
Ice(s)            0.00    -0.00     -0.00    0.000e+00   5.437e+01   5.437e+01
Kainite              Element not present.    0.000e+00           0   0.000e+00
Kieserite        -3.54    -2.88      0.66    0.000e+00           0   0.000e+00
Labile_Salt          Element not present.    0.000e+00           0   0.000e+00
Langbeinite          Element not present.    0.000e+00           0   0.000e+00
Leonite              Element not present.    0.000e+00           0   0.000e+00
Meridianiite     -0.70    -2.91     -2.21    0.000e+00           0   0.000e+00
MgCl2:12H2O          Element not present.    0.000e+00           0   0.000e+00
MgCl2:8H2O           Element not present.    0.000e+00           0   0.000e+00
Mirabilite           Element not present.    0.000e+00           0   0.000e+00
Na2SO4:7H2O          Element not present.    0.000e+00           0   0.000e+00
Pentahydrite     -1.82    -2.89     -1.07    0.000e+00           0   0.000e+00
Picromerite          Element not present.    0.000e+00           0   0.000e+00
Polyhalite           Element not present.    0.000e+00           0   0.000e+00
Starkeyite       -2.40    -2.89     -0.49    0.000e+00           0   0.000e+00
Sylvite              Element not present.    0.000e+00           0   0.000e+00
Syngenite            Element not present.    0.000e+00           0   0.000e+00
Tachyhydrite         Element not present.    0.000e+00           0   0.000e+00
Thenardite           Element not present.    0.000e+00           0   0.000e+00

-----------------------------Solution composition------------------------------

	Elements           Molality       Moles

	Mg                4.048e-01   8.300e-03
	S                 4.048e-01   8.300e-03

----------------------------Description of solution----------------------------

                                       pH  =   7.000      Charge balance
                                       pe  =   4.000      Adjusted to redox equilibrium
                        Activity of water  =   0.992
                 Ionic strength (mol/kgw)  =   1.619e+00
                       Mass of water (kg)  =   2.050e-02
                 Total alkalinity (eq/kg)  =  -1.332e-09
                         Temperature (°C)  =  -0.80
                  Electrical balance (eq)  =   2.731e-11
 Percent error, 100*(Cat-|An|)/(Cat+|An|)  =   0.00
                               Iterations  =  38 (1442 overall)
                         Gamma iterations  =   1
                      Osmotic coefficient  =   0.53167
                                  Total H  = 2.276281e+00
                                  Total O  = 1.171340e+00

----------------------------Distribution of species----------------------------

                                                    Unscaled  Unscaled
                                Unscaled       Log       Log       Log    mole V
   Species          Molality    Activity  Molality  Activity     Gamma    cm³/mol

   H+              2.416e-07   9.989e-08    -6.617    -7.000    -0.384      0.00
   OH-             2.403e-07   9.934e-08    -6.619    -7.003    -0.384     (0)  
   H2O             5.551e+01   9.923e-01     1.744    -0.003     0.000     18.02
Mg            4.048e-01
   Mg+2            4.048e-01   3.640e-02    -0.393    -1.439    -1.046     (0)  
S(6)          4.048e-01
   SO4-2           4.048e-01   3.640e-02    -0.393    -1.439    -1.046     (0)  

------------------------------Saturation indices-------------------------------

  Phase               SI** log IAP   log K(272 K,   1 atm)

  Epsomite         -0.81     -2.90   -2.10  MgSO4:7H2O
  Hexahydrite      -1.31     -2.90   -1.59  MgSO4:6H2O
  Ice(s)            0.00     -0.00   -0.00  H2O
  Kieserite        -3.54     -2.88    0.66  MgSO4:H2O
  Meridianiite     -0.70     -2.91   -2.21  MgSO4:11H2O
  Pentahydrite     -1.82     -2.89   -1.07  MgSO4:5H2O
  Starkeyite       -2.40     -2.89   -0.49  MgSO4:4H2O

**For a gas, SI = log10(fugacity). Fugacity = pressure * phi / 1 atm.
  For ideal gases, phi = 1.

Reaction step 10.

Using solution 1.	
Using pure phase assemblage 1.	
Using temperature 1.	

-------------------------------Phase assemblage--------------------------------

                                                      Moles in assemblage
Phase               SI  log IAP  log K(T, P)   Initial       Final       Delta

Anhydrite            Element not present.    0.000e+00           0   0.000e+00
Antarcticite         Element not present.    0.000e+00           0   0.000e+00
Arcanite             Element not present.    0.000e+00           0   0.000e+00
Bassanite            Element not present.    0.000e+00           0   0.000e+00
Bischofite           Element not present.    0.000e+00           0   0.000e+00
Bloedite             Element not present.    0.000e+00           0   0.000e+00
Carnallite           Element not present.    0.000e+00           0   0.000e+00
Epsomite         -0.75    -2.85     -2.10    0.000e+00           0   0.000e+00
Glaserite            Element not present.    0.000e+00           0   0.000e+00
Glauberite           Element not present.    0.000e+00           0   0.000e+00
Gypsum               Element not present.    0.000e+00           0   0.000e+00
Halite               Element not present.    0.000e+00           0   0.000e+00
Hexahydrite      -1.26    -2.85     -1.59    0.000e+00           0   0.000e+00
Hydrohalite          Element not present.    0.000e+00           0   0.000e+00
Ice(s)            0.00    -0.00     -0.00    0.000e+00   5.451e+01   5.451e+01
Kainite              Element not present.    0.000e+00           0   0.000e+00
Kieserite        -3.49    -2.83      0.66    0.000e+00           0   0.000e+00
Labile_Salt          Element not present.    0.000e+00           0   0.000e+00
Langbeinite          Element not present.    0.000e+00           0   0.000e+00
Leonite              Element not present.    0.000e+00           0   0.000e+00
Meridianiite     -0.65    -2.87     -2.21    0.000e+00           0   0.000e+00
MgCl2:12H2O          Element not present.    0.000e+00           0   0.000e+00
MgCl2:8H2O           Element not present.    0.000e+00           0   0.000e+00
Mirabilite           Element not present.    0.000e+00           0   0.000e+00
Na2SO4:7H2O          Element not present.    0.000e+00           0   0.000e+00
Pentahydrite     -1.77    -2.84     -1.07    0.000e+00           0   0.000e+00
Picromerite          Element not present.    0.000e+00           0   0.000e+00
Polyhalite           Element not present.    0.000e+00           0   0.000e+00
Starkeyite       -2.35    -2.84     -0.49    0.000e+00           0   0.000e+00
Sylvite              Element not present.    0.000e+00           0   0.000e+00
Syngenite            Element not present.    0.000e+00           0   0.000e+00
Tachyhydrite         Element not present.    0.000e+00           0   0.000e+00
Thenardite           Element not present.    0.000e+00           0   0.000e+00

-----------------------------Solution composition------------------------------

	Elements           Molality       Moles

	Mg                4.594e-01   8.300e-03
	S                 4.594e-01   8.300e-03

----------------------------Description of solution----------------------------

                                       pH  =   7.001      Charge balance
                                       pe  =   4.000      Adjusted to redox equilibrium
                        Activity of water  =   0.991
                 Ionic strength (mol/kgw)  =   1.837e+00
                       Mass of water (kg)  =   1.807e-02
                 Total alkalinity (eq/kg)  =  -1.511e-09
                         Temperature (°C)  =  -0.90
                  Electrical balance (eq)  =   2.731e-11
 Percent error, 100*(Cat-|An|)/(Cat+|An|)  =   0.00
                               Iterations  =  39 (1443 overall)
                         Gamma iterations  =   1
                      Osmotic coefficient  =   0.52713
                                  Total H  = 2.005941e+00
                                  Total O  = 1.036171e+00

----------------------------Distribution of species----------------------------

                                                    Unscaled  Unscaled
                                Unscaled       Log       Log       Log    mole V
   Species          Molality    Activity  Molality  Activity     Gamma    cm³/mol

   H+              2.515e-07   9.987e-08    -6.599    -7.001    -0.401      0.00
   OH-             2.500e-07   9.927e-08    -6.602    -7.003    -0.401     (0)  
   H2O             5.551e+01   9.913e-01     1.744    -0.004     0.000     18.02
Mg            4.594e-01
   Mg+2            4.594e-01   3.874e-02    -0.338    -1.412    -1.074     (0)  
S(6)          4.594e-01
   SO4-2           4.594e-01   3.874e-02    -0.338    -1.412    -1.074     (0)  

------------------------------Saturation indices-------------------------------

  Phase               SI** log IAP   log K(272 K,   1 atm)

  Epsomite         -0.75     -2.85   -2.10  MgSO4:7H2O
  Hexahydrite      -1.26     -2.85   -1.59  MgSO4:6H2O
  Ice(s)            0.00     -0.00   -0.00  H2O
  Kieserite        -3.49     -2.83    0.66  MgSO4:H2O
  Meridianiite     -0.65     -2.87   -2.21  MgSO4:11H2O
  Pentahydrite     -1.77     -2.84   -1.07  MgSO4:5H2O
  Starkeyite       -2.35     -2.84   -0.49  MgSO4:4H2O

**For a gas, SI = log10(fugacity). Fugacity = pressure * phi / 1 atm.
  For ideal gases, phi = 1.

Reaction step 11.

Using solution 1.	
Using pure phase assemblage 1.	
Using temperature 1.	

-------------------------------Phase assemblage--------------------------------

                                                      Moles in assemblage
Phase               SI  log IAP  log K(T, P)   Initial       Final       Delta

Anhydrite            Element not present.    0.000e+00           0   0.000e+00
Antarcticite         Element not present.    0.000e+00           0   0.000e+00
Arcanite             Element not present.    0.000e+00           0   0.000e+00
Bassanite            Element not present.    0.000e+00           0   0.000e+00
Bischofite           Element not present.    0.000e+00           0   0.000e+00
Bloedite             Element not present.    0.000e+00           0   0.000e+00
Carnallite           Element not present.    0.000e+00           0   0.000e+00
Epsomite         -0.71    -2.80     -2.10    0.000e+00           0   0.000e+00
Glaserite            Element not present.    0.000e+00           0   0.000e+00
Glauberite           Element not present.    0.000e+00           0   0.000e+00
Gypsum               Element not present.    0.000e+00           0   0.000e+00
Halite               Element not present.    0.000e+00           0   0.000e+00
Hexahydrite      -1.21    -2.80     -1.59    0.000e+00           0   0.000e+00
Hydrohalite          Element not present.    0.000e+00           0   0.000e+00
Ice(s)            0.00    -0.00     -0.00    0.000e+00   5.461e+01   5.461e+01
Kainite              Element not present.    0.000e+00           0   0.000e+00
Kieserite        -3.45    -2.78      0.67    0.000e+00           0   0.000e+00
Labile_Salt          Element not present.    0.000e+00           0   0.000e+00
Langbeinite          Element not present.    0.000e+00           0   0.000e+00
Leonite              Element not present.    0.000e+00           0   0.000e+00
Meridianiite     -0.60    -2.82     -2.22    0.000e+00           0   0.000e+00
MgCl2:12H2O          Element not present.    0.000e+00           0   0.000e+00
MgCl2:8H2O           Element not present.    0.000e+00           0   0.000e+00
Mirabilite           Element not present.    0.000e+00           0   0.000e+00
Na2SO4:7H2O          Element not present.    0.000e+00           0   0.000e+00
Pentahydrite     -1.72    -2.80     -1.07    0.000e+00           0   0.000e+00
Picromerite          Element not present.    0.000e+00           0   0.000e+00
Polyhalite           Element not present.    0.000e+00           0   0.000e+00
Starkeyite       -2.30    -2.79     -0.49    0.000e+00           0   0.000e+00
Sylvite              Element not present.    0.000e+00           0   0.000e+00
Syngenite            Element not present.    0.000e+00           0   0.000e+00
Tachyhydrite         Element not present.    0.000e+00           0   0.000e+00
Thenardite           Element not present.    0.000e+00           0   0.000e+00

-----------------------------Solution composition------------------------------

	Elements           Molality       Moles

	Mg                5.139e-01   8.300e-03
	S                 5.139e-01   8.300e-03

----------------------------Description of solution----------------------------

                                       pH  =   7.001      Charge balance
                                       pe  =   4.000      Adjusted to redox equilibrium
                        Activity of water  =   0.990
                 Ionic strength (mol/kgw)  =   2.055e+00
                       Mass of water (kg)  =   1.615e-02
                 Total alkalinity (eq/kg)  =  -1.691e-09
                         Temperature (°C)  =  -1.00
                  Electrical balance (eq)  =   2.731e-11
 Percent error, 100*(Cat-|An|)/(Cat+|An|)  =   0.00
                               Iterations  =  39 (1443 overall)
                         Gamma iterations  =   1
                      Osmotic coefficient  =   0.52361
                                  Total H  = 1.793174e+00
                                  Total O  = 9.297872e-01

----------------------------Distribution of species----------------------------

                                                    Unscaled  Unscaled
                                Unscaled       Log       Log       Log    mole V
   Species          Molality    Activity  Molality  Activity     Gamma    cm³/mol

   H+              2.609e-07   9.984e-08    -6.584    -7.001    -0.417      0.00
   OH-             2.592e-07   9.919e-08    -6.586    -7.004    -0.417     (0)  
   H2O             5.551e+01   9.904e-01     1.744    -0.004     0.000     18.02
Mg            5.139e-01
   Mg+2            5.139e-01   4.095e-02    -0.289    -1.388    -1.099     (0)  
S(6)          5.139e-01
   SO4-2           5.139e-01   4.095e-02    -0.289    -1.388    -1.099     (0)  

------------------------------Saturation indices-------------------------------

  Phase               SI** log IAP   log K(272 K,   1 atm)

  Epsomite         -0.71     -2.80   -2.10  MgSO4:7H2O
  Hexahydrite      -1.21     -2.80   -1.59  MgSO4:6H2O
  Ice(s)            0.00     -0.00   -0.00  H2O
  Kieserite        -3.45     -2.78    0.67  MgSO4:H2O
  Meridianiite     -0.60     -2.82   -2.22  MgSO4:11H2O
  Pentahydrite     -1.72     -2.80   -1.07  MgSO4:5H2O
  Starkeyite       -2.30     -2.79   -0.49  MgSO4:4H2O

**For a gas, SI = log10(fugacity). Fugacity = pressure * phi / 1 atm.
  For ideal gases, phi = 1.

Reaction step 12.

Using solution 1.	
Using pure phase assemblage 1.	
Using temperature 1.	

-------------------------------Phase assemblage--------------------------------

                                                      Moles in assemblage
Phase               SI  log IAP  log K(T, P)   Initial       Final       Delta

Anhydrite            Element not present.    0.000e+00           0   0.000e+00
Antarcticite         Element not present.    0.000e+00           0   0.000e+00
Arcanite             Element not present.    0.000e+00           0   0.000e+00
Bassanite            Element not present.    0.000e+00           0   0.000e+00
Bischofite           Element not present.    0.000e+00           0   0.000e+00
Bloedite             Element not present.    0.000e+00           0   0.000e+00
Carnallite           Element not present.    0.000e+00           0   0.000e+00
Epsomite         -0.67    -2.76     -2.10    0.000e+00           0   0.000e+00
Glaserite            Element not present.    0.000e+00           0   0.000e+00
Glauberite           Element not present.    0.000e+00           0   0.000e+00
Gypsum               Element not present.    0.000e+00           0   0.000e+00
Halite               Element not present.    0.000e+00           0   0.000e+00
Hexahydrite      -1.17    -2.76     -1.59    0.000e+00           0   0.000e+00
Hydrohalite          Element not present.    0.000e+00           0   0.000e+00
Ice(s)            0.00    -0.00     -0.00    0.000e+00   5.470e+01   5.470e+01
Kainite              Element not present.    0.000e+00           0   0.000e+00
Kieserite        -3.41    -2.74      0.67    0.000e+00           0   0.000e+00
Labile_Salt          Element not present.    0.000e+00           0   0.000e+00
Langbeinite          Element not present.    0.000e+00           0   0.000e+00
Leonite              Element not present.    0.000e+00           0   0.000e+00
Meridianiite     -0.56    -2.78     -2.22    0.000e+00           0   0.000e+00
MgCl2:12H2O          Element not present.    0.000e+00           0   0.000e+00
MgCl2:8H2O           Element not present.    0.000e+00           0   0.000e+00
Mirabilite           Element not present.    0.000e+00           0   0.000e+00
Na2SO4:7H2O          Element not present.    0.000e+00           0   0.000e+00
Pentahydrite     -1.68    -2.76     -1.07    0.000e+00           0   0.000e+00
Picromerite          Element not present.    0.000e+00           0   0.000e+00
Polyhalite           Element not present.    0.000e+00           0   0.000e+00
Starkeyite       -2.26    -2.75     -0.49    0.000e+00           0   0.000e+00
Sylvite              Element not present.    0.000e+00           0   0.000e+00
Syngenite            Element not present.    0.000e+00           0   0.000e+00
Tachyhydrite         Element not present.    0.000e+00           0   0.000e+00
Thenardite           Element not present.    0.000e+00           0   0.000e+00

-----------------------------Solution composition------------------------------

	Elements           Molality       Moles

	Mg                5.681e-01   8.300e-03
	S                 5.681e-01   8.300e-03

----------------------------Description of solution----------------------------

                                       pH  =   7.001      Charge balance
                                       pe  =   4.000      Adjusted to redox equilibrium
                        Activity of water  =   0.989
                 Ionic strength (mol/kgw)  =   2.272e+00
                       Mass of water (kg)  =   1.461e-02
[...]
Polyhalite           Element not present.    0.000e+00           0   0.000e+00
Starkeyite       -1.77    -2.24     -0.47    0.000e+00           0   0.000e+00
Sylvite              Element not present.    0.000e+00           0   0.000e+00
Syngenite            Element not present.    0.000e+00           0   0.000e+00
Tachyhydrite         Element not present.    0.000e+00           0   0.000e+00
Thenardite           Element not present.    0.000e+00           0   0.000e+00

-----------------------------Solution composition------------------------------

	Elements           Molality       Moles

	Mg                1.616e+00   8.300e-03
	S                 1.616e+00   8.300e-03

----------------------------Description of solution----------------------------

                                       pH  =   7.005      Charge balance
                                       pe  =   4.000      Adjusted to redox equilibrium
                        Activity of water  =   0.966
                 Ionic strength (mol/kgw)  =   6.463e+00
                       Mass of water (kg)  =   5.137e-03
                 Total alkalinity (eq/kg)  =  -5.316e-09
                         Temperature (°C)  =  -3.60
                  Electrical balance (eq)  =   2.731e-11
 Percent error, 100*(Cat-|An|)/(Cat+|An|)  =   0.00
                               Iterations  =  32 (1436 overall)
                         Gamma iterations  =   1
                      Osmotic coefficient  =   0.60043
                                  Total H  = 5.702770e-01
                                  Total O  = 3.183385e-01

----------------------------Distribution of species----------------------------

                                                    Unscaled  Unscaled
                                Unscaled       Log       Log       Log    mole V
   Species          Molality    Activity  Molality  Activity     Gamma    cm³/mol

   H+              3.891e-07   9.895e-08    -6.410    -7.005    -0.595      0.00
   OH-             3.838e-07   9.759e-08    -6.416    -7.011    -0.595     (0)  
   H2O             5.551e+01   9.656e-01     1.744    -0.015     0.000     18.03
Mg            1.616e+00
   Mg+2            1.616e+00   8.175e-02     0.208    -1.088    -1.296     (0)  
S(6)          1.616e+00
   SO4-2           1.616e+00   8.175e-02     0.208    -1.088    -1.296     (0)  

------------------------------Saturation indices-------------------------------

  Phase               SI** log IAP   log K(269 K,   1 atm)

  Epsomite         -0.16     -2.28   -2.13  MgSO4:7H2O
  Hexahydrite      -0.67     -2.27   -1.59  MgSO4:6H2O
  Ice(s)            0.00     -0.02   -0.02  H2O
  Kieserite        -2.93     -2.19    0.74  MgSO4:H2O
  Meridianiite     -0.02     -2.34   -2.32  MgSO4:11H2O
  Pentahydrite     -1.19     -2.25   -1.06  MgSO4:5H2O
  Starkeyite       -1.77     -2.24   -0.47  MgSO4:4H2O

**For a gas, SI = log10(fugacity). Fugacity = pressure * phi / 1 atm.
  For ideal gases, phi = 1.

Reaction step 38.

Using solution 1.	
Using pure phase assemblage 1.	
Using temperature 1.	

-------------------------------Phase assemblage--------------------------------

                                                      Moles in assemblage
Phase               SI  log IAP  log K(T, P)   Initial       Final       Delta

Anhydrite            Element not present.    0.000e+00           0   0.000e+00
Antarcticite         Element not present.    0.000e+00           0   0.000e+00
Arcanite             Element not present.    0.000e+00           0   0.000e+00
Bassanite            Element not present.    0.000e+00           0   0.000e+00
Bischofite           Element not present.    0.000e+00           0   0.000e+00
Bloedite             Element not present.    0.000e+00           0   0.000e+00
Carnallite           Element not present.    0.000e+00           0   0.000e+00
Epsomite         -0.14    -2.27     -2.13    0.000e+00           0   0.000e+00
Glaserite            Element not present.    0.000e+00           0   0.000e+00
Glauberite           Element not present.    0.000e+00           0   0.000e+00
Gypsum               Element not present.    0.000e+00           0   0.000e+00
Halite               Element not present.    0.000e+00           0   0.000e+00
Hexahydrite      -0.66    -2.25     -1.59    0.000e+00           0   0.000e+00
Hydrohalite          Element not present.    0.000e+00           0   0.000e+00
Ice(s)            0.00    -0.02     -0.02    0.000e+00   5.523e+01   5.523e+01
Kainite              Element not present.    0.000e+00           0   0.000e+00
Kieserite        -2.92    -2.18      0.74    0.000e+00           0   0.000e+00
Labile_Salt          Element not present.    0.000e+00           0   0.000e+00
Langbeinite          Element not present.    0.000e+00           0   0.000e+00
Leonite              Element not present.    0.000e+00           0   0.000e+00
Meridianiite     -0.01    -2.33     -2.33    0.000e+00           0   0.000e+00
MgCl2:12H2O          Element not present.    0.000e+00           0   0.000e+00
MgCl2:8H2O           Element not present.    0.000e+00           0   0.000e+00
Mirabilite           Element not present.    0.000e+00           0   0.000e+00
Na2SO4:7H2O          Element not present.    0.000e+00           0   0.000e+00
Pentahydrite     -1.17    -2.24     -1.06    0.000e+00           0   0.000e+00
Picromerite          Element not present.    0.000e+00           0   0.000e+00
Polyhalite           Element not present.    0.000e+00           0   0.000e+00
Starkeyite       -1.76    -2.22     -0.47    0.000e+00           0   0.000e+00
Sylvite              Element not present.    0.000e+00           0   0.000e+00
Syngenite            Element not present.    0.000e+00           0   0.000e+00
Tachyhydrite         Element not present.    0.000e+00           0   0.000e+00
Thenardite           Element not present.    0.000e+00           0   0.000e+00

-----------------------------Solution composition------------------------------

	Elements           Molality       Moles

	Mg                1.646e+00   8.300e-03
	S                 1.646e+00   8.300e-03

----------------------------Description of solution----------------------------

                                       pH  =   7.005      Charge balance
                                       pe  =   4.000      Adjusted to redox equilibrium
                        Activity of water  =   0.965
                 Ionic strength (mol/kgw)  =   6.585e+00
                       Mass of water (kg)  =   5.042e-03
                 Total alkalinity (eq/kg)  =  -5.416e-09
                         Temperature (°C)  =  -3.70
                  Electrical balance (eq)  =   2.731e-11
 Percent error, 100*(Cat-|An|)/(Cat+|An|)  =   0.00
                               Iterations  =  33 (1437 overall)
                         Gamma iterations  =   1
                      Osmotic coefficient  =   0.60576
                                  Total H  = 5.597578e-01
                                  Total O  = 3.130789e-01

----------------------------Distribution of species----------------------------

                                                    Unscaled  Unscaled
                                Unscaled       Log       Log       Log    mole V
   Species          Molality    Activity  Molality  Activity     Gamma    cm³/mol

   H+              3.915e-07   9.891e-08    -6.407    -7.005    -0.597      0.00
   OH-             3.861e-07   9.754e-08    -6.413    -7.011    -0.597     (0)  
   H2O             5.551e+01   9.647e-01     1.744    -0.016     0.000     18.03
Mg            1.646e+00
   Mg+2            1.646e+00   8.311e-02     0.216    -1.080    -1.297     (0)  
S(6)          1.646e+00
   SO4-2           1.646e+00   8.311e-02     0.216    -1.080    -1.297     (0)  

------------------------------Saturation indices-------------------------------

  Phase               SI** log IAP   log K(269 K,   1 atm)

  Epsomite         -0.14     -2.27   -2.13  MgSO4:7H2O
  Hexahydrite      -0.66     -2.25   -1.59  MgSO4:6H2O
  Ice(s)            0.00     -0.02   -0.02  H2O
  Kieserite        -2.92     -2.18    0.74  MgSO4:H2O
  Meridianiite     -0.01     -2.33   -2.33  MgSO4:11H2O
  Pentahydrite     -1.17     -2.24   -1.06  MgSO4:5H2O
  Starkeyite       -1.76     -2.22   -0.47  MgSO4:4H2O

**For a gas, SI = log10(fugacity). Fugacity = pressure * phi / 1 atm.
  For ideal gases, phi = 1.

Reaction step 39.

Using solution 1.	
Using pure phase assemblage 1.	
Using temperature 1.	

-------------------------------Phase assemblage--------------------------------

                                                      Moles in assemblage
Phase               SI  log IAP  log K(T, P)   Initial       Final       Delta

Anhydrite            Element not present.    0.000e+00           0   0.000e+00
Antarcticite         Element not present.    0.000e+00           0   0.000e+00
Arcanite             Element not present.    0.000e+00           0   0.000e+00
Bassanite            Element not present.    0.000e+00           0   0.000e+00
Bischofite           Element not present.    0.000e+00           0   0.000e+00
Bloedite             Element not present.    0.000e+00           0   0.000e+00
Carnallite           Element not present.    0.000e+00           0   0.000e+00
Epsomite         -0.14    -2.27     -2.13    0.000e+00           0   0.000e+00
Glaserite            Element not present.    0.000e+00           0   0.000e+00
Glauberite           Element not present.    0.000e+00           0   0.000e+00
Gypsum               Element not present.    0.000e+00           0   0.000e+00
Halite               Element not present.    0.000e+00           0   0.000e+00
Hexahydrite      -0.65    -2.25     -1.59    0.000e+00           0   0.000e+00
Hydrohalite          Element not present.    0.000e+00           0   0.000e+00
Ice(s)            0.00    -0.02     -0.02    0.000e+00   5.542e+01   5.542e+01
Kainite              Element not present.    0.000e+00           0   0.000e+00
Kieserite        -2.91    -2.17      0.74    0.000e+00           0   0.000e+00
Labile_Salt          Element not present.    0.000e+00           0   0.000e+00
Langbeinite          Element not present.    0.000e+00           0   0.000e+00
Leonite              Element not present.    0.000e+00           0   0.000e+00
Meridianiite      0.00    -2.33     -2.33    0.000e+00   8.300e-03   8.300e-03
MgCl2:12H2O          Element not present.    0.000e+00           0   0.000e+00
MgCl2:8H2O           Element not present.    0.000e+00           0   0.000e+00
Mirabilite           Element not present.    0.000e+00           0   0.000e+00
Na2SO4:7H2O          Element not present.    0.000e+00           0   0.000e+00
Pentahydrite     -1.17    -2.23     -1.06    0.000e+00           0   0.000e+00
Picromerite          Element not present.    0.000e+00           0   0.000e+00
Polyhalite           Element not present.    0.000e+00           0   0.000e+00
Starkeyite       -1.75    -2.22     -0.46    0.000e+00           0   0.000e+00
Sylvite              Element not present.    0.000e+00           0   0.000e+00
Syngenite            Element not present.    0.000e+00           0   0.000e+00
Tachyhydrite         Element not present.    0.000e+00           0   0.000e+00
Thenardite           Element not present.    0.000e+00           0   0.000e+00

-----------------------------Solution composition------------------------------

	Elements           Molality       Moles

	Mg                1.667e+00   1.829e-09
	S                 1.667e+00   1.829e-09

----------------------------Description of solution----------------------------

                                       pH  =   2.203      Charge balance
                                       pe  =   4.000      Adjusted to redox equilibrium
                        Activity of water  =   0.964
                 Ionic strength (mol/kgw)  =   6.682e+00
                       Mass of water (kg)  =   1.097e-09
                 Total alkalinity (eq/kg)  =  -2.489e-02
                         Temperature (°C)  =  -3.80
                  Electrical balance (eq)  =   2.731e-11
 Percent error, 100*(Cat-|An|)/(Cat+|An|)  =   0.37
                               Iterations  = 121 (1525 overall)
                         Gamma iterations  =   1
                      Osmotic coefficient  =   0.60975
                                  Total H  = 1.218448e-07
                                  Total O  = 6.822659e-08

----------------------------Distribution of species----------------------------

                                                    Unscaled  Unscaled
                                Unscaled       Log       Log       Log    mole V
   Species          Molality    Activity  Molality  Activity     Gamma    cm³/mol

   H+              2.489e-02   6.261e-03    -1.604    -2.203    -0.599      0.00
   OH-             6.119e-12   1.539e-12   -11.213   -11.813    -0.599     (0)  
   H2O             5.551e+01   9.638e-01     1.744    -0.016     0.000     18.03
Mg            1.667e+00
   Mg+2            1.667e+00   8.374e-02     0.222    -1.077    -1.299     (0)  
S(6)          1.667e+00
   SO4-2           1.667e+00   8.396e-02     0.222    -1.076    -1.298     (0)  

------------------------------Saturation indices-------------------------------

  Phase               SI** log IAP   log K(269 K,   1 atm)

  Epsomite         -0.14     -2.27   -2.13  MgSO4:7H2O
  Hexahydrite      -0.65     -2.25   -1.59  MgSO4:6H2O
  Ice(s)            0.00     -0.02   -0.02  H2O
  Kieserite        -2.91     -2.17    0.74  MgSO4:H2O
  Meridianiite      0.00     -2.33   -2.33  MgSO4:11H2O
  Pentahydrite     -1.17     -2.23   -1.06  MgSO4:5H2O
  Starkeyite       -1.75     -2.22   -0.46  MgSO4:4H2O

**For a gas, SI = log10(fugacity). Fugacity = pressure * phi / 1 atm.
  For ideal gases, phi = 1.

Reaction step 40.

ERROR:               Ice(s) Pure phase has not converged. 	Residual: -3.764968e-02

Using solution 1.	
Using pure phase assemblage 1.	
Using temperature 1.	

-------------------------------Phase assemblage--------------------------------

                                                      Moles in assemblage
Phase               SI  log IAP  log K(T, P)   Initial       Final       Delta

Anhydrite            Element not present.    0.000e+00           0   0.000e+00
Antarcticite         Element not present.    0.000e+00           0   0.000e+00
Arcanite             Element not present.    0.000e+00           0   0.000e+00
Bassanite            Element not present.    0.000e+00           0   0.000e+00
Bischofite           Element not present.    0.000e+00           0   0.000e+00
Bloedite             Element not present.    0.000e+00           0   0.000e+00
Carnallite           Element not present.    0.000e+00           0   0.000e+00
Epsomite         -2.03    -4.16     -2.13    0.000e+00           0   0.000e+00
Glaserite            Element not present.    0.000e+00           0   0.000e+00
Glauberite           Element not present.    0.000e+00           0   0.000e+00
Gypsum               Element not present.    0.000e+00           0   0.000e+00
Halite               Element not present.    0.000e+00           0   0.000e+00
Hexahydrite      -2.57    -4.16     -1.59    0.000e+00           0   0.000e+00
Hydrohalite          Element not present.    0.000e+00           0   0.000e+00
Ice(s)            0.02    -0.00     -0.02    0.000e+00           0   0.000e+00
Kainite              Element not present.    0.000e+00           0   0.000e+00
Kieserite        -4.91    -4.16      0.75    0.000e+00           0   0.000e+00
Labile_Salt          Element not present.    0.000e+00           0   0.000e+00
Langbeinite          Element not present.    0.000e+00           0   0.000e+00
Leonite              Element not present.    0.000e+00           0   0.000e+00
Meridianiite     -1.83    -4.16     -2.33    0.000e+00           0   0.000e+00
MgCl2:12H2O          Element not present.    0.000e+00           0   0.000e+00
MgCl2:8H2O           Element not present.    0.000e+00           0   0.000e+00
Mirabilite           Element not present.    0.000e+00           0   0.000e+00
Na2SO4:7H2O          Element not present.    0.000e+00           0   0.000e+00
Pentahydrite     -3.10    -4.16     -1.06    0.000e+00           0   0.000e+00
Picromerite          Element not present.    0.000e+00           0   0.000e+00
Polyhalite           Element not present.    0.000e+00           0   0.000e+00
Starkeyite       -3.70    -4.16     -0.46    0.000e+00           0   0.000e+00
Sylvite              Element not present.    0.000e+00           0   0.000e+00
Syngenite            Element not present.    0.000e+00           0   0.000e+00
Tachyhydrite         Element not present.    0.000e+00           0   0.000e+00
Thenardite           Element not present.    0.000e+00           0   0.000e+00

-----------------------------Solution composition------------------------------

	Elements           Molality       Moles

	Mg                8.300e-03   8.300e-03
	S                 8.300e-03   8.300e-03

----------------------------Description of solution----------------------------

                                       pH  =   7.000      Charge balance
                                       pe  =   4.000      Adjusted to redox equilibrium
                        Activity of water  =   1.000
                 Ionic strength (mol/kgw)  =   3.320e-02
                       Mass of water (kg)  =   1.000e+00
                 Total alkalinity (eq/kg)  =  -2.731e-11
                         Temperature (°C)  =  -3.90
                  Electrical balance (eq)  =   2.731e-11
 Percent error, 100*(Cat-|An|)/(Cat+|An|)  =   0.00
                               Iterations  = 401 (3209 overall)
                         Gamma iterations  =   0
                      Osmotic coefficient  =   0.57682
                                  Total H  = 1.110186e+02
                                  Total O  = 5.554250e+01

----------------------------Distribution of species----------------------------

                                                    Unscaled  Unscaled
                                Unscaled       Log       Log       Log    mole V
   Species          Molality    Activity  Molality  Activity     Gamma    cm³/mol

   H+              1.000e-07   1.000e-07    -7.000    -7.000     0.000      0.00
   OH-             9.998e-08   9.998e-08    -7.000    -7.000     0.000     (0)  
   H2O             5.551e+01   9.998e-01     1.744    -0.000     0.000     18.03
Mg            8.300e-03
   Mg+2            8.300e-03   8.300e-03    -2.081    -2.081     0.000     (0)  
S(6)          8.300e-03
   SO4-2           8.300e-03   8.300e-03    -2.081    -2.081     0.000     (0)  

------------------------------Saturation indices-------------------------------

  Phase               SI** log IAP   log K(269 K,   1 atm)

  Epsomite         -2.03     -4.16   -2.13  MgSO4:7H2O
  Hexahydrite      -2.57     -4.16   -1.59  MgSO4:6H2O
  Ice(s)            0.02     -0.00   -0.02  H2O
  Kieserite        -4.91     -4.16    0.75  MgSO4:H2O
  Meridianiite     -1.83     -4.16   -2.33  MgSO4:11H2O
  Pentahydrite     -3.10     -4.16   -1.06  MgSO4:5H2O
  Starkeyite       -3.70     -4.16   -0.46  MgSO4:4H2O

**For a gas, SI = log10(fugacity). Fugacity = pressure * phi / 1 atm.
  For ideal gases, phi = 1.

ERROR: Numerical method failed on all combinations of convergence parameters, cell/soln/mix 1
-------------------------------
End of Run after 5.165 Seconds.
-------------------------------

