   Input file: C:\Users\nswol\Dropbox\Graduate School\Research\UTIG\Projects\2021-Wolfenbarger-Bulk Properties\PHREEQC\frezchem\Europa\Cl-Dominated.pqi
  Output file: C:\Users\nswol\Dropbox\Graduate School\Research\UTIG\Projects\2021-Wolfenbarger-Bulk Properties\PHREEQC\frezchem\Europa\Cl-Dominated.pqo
Database file: C:\Program Files (x86)\USGS\Phreeqc Interactive 3.7.3-15968\database\frezchem.dat

------------------
Reading data base.
------------------

	PITZER
	SOLUTION_MASTER_SPECIES
	SOLUTION_SPECIES
	PHASES
	PITZER
	EXCHANGE_MASTER_SPECIES
	EXCHANGE_SPECIES
	SURFACE_MASTER_SPECIES
	SURFACE_SPECIES
	END
------------------------------------
Reading input data for simulation 1.
------------------------------------

	DATABASE C:\Program Files (x86)\USGS\Phreeqc Interactive 3.7.3-15968\database\frezchem.dat
	TITLE Cl-dominated - frezchem.dat
	SOLUTION
		units	mol/kgw
			Na	0.0439
			Mg	0.00488	
			Cl	0.04878
			S	0.00244	
	EQUILIBRIUM_PHASES
		Anhydrite		0.0	0.0
		Antarcticite	0.0	0.0
		Aphthitalite	0.0	0.0
		Aragonite		0.0	0.0
		Arcanite		0.0	0.0
		Bischofite		0.0	0.0
		Bloedite		0.0	0.0
		Calcite		0.0	0.0
		Carnallite		0.0	0.0
		Dolomite		0.0	0.0
		Epsomite		0.0	0.0
		Gypsum		0.0	0.0
		Halite		0.0	0.0
		Hexahydrite		0.0	0.0
		Hydrohalite		0.0	0.0
		Hydromagnesite	0.0	0.0
		Ikaite		0.0	0.0
		Kalicinite		0.0	0.0
		Kieserite		0.0	0.0
		Landsfordite	0.0	0.0
		Magnesite		0.0	0.0
		Meridianite		0.0	0.0
		MgCl2:8H2O		0.0	0.0
		MgCl2:12H2O		0.0	0.0
		Mirabilite		0.0	0.0
		Na2CO3:7H2O		0.0	0.0
		Nahcolite		0.0	0.0
		Natron		0.0	0.0
		Nesquehonite	0.0	0.0
		Picromerite		0.0	0.0
		Sylvite		0.0	0.0
		Tachyhydrite	0.0	0.0
		Thenardite		0.0	0.0
		Trona			0.0	0.0
		Vaterite		0.0	0.0
		Ice(s) 		0.0	0.0
	REACTION_TEMPERATURE
	        0 -40.0 in 401 steps
	END
-----
TITLE
-----

 Cl-dominated - frezchem.dat

-------------------------------------------
Beginning of initial solution calculations.
-------------------------------------------

Initial solution 1.	

-----------------------------Solution composition------------------------------

	Elements           Molality       Moles

	Cl                4.878e-02   4.878e-02
	Mg                4.880e-03   4.880e-03
	Na                4.390e-02   4.390e-02
	S                 2.440e-03   2.440e-03

----------------------------Description of solution----------------------------

                                       pH  =   7.000    
                                       pe  =   4.000    
      Specific Conductance (µS/cm,  25°C)  = 5761
                          Density (g/cm³)  =   0.99935
                               Volume (L)  =   1.00374
                        Activity of water  =   0.998
                 Ionic strength (mol/kgw)  =   6.098e-02
                       Mass of water (kg)  =   1.000e+00
                 Total alkalinity (eq/kg)  =   4.240e-08
                         Temperature (°C)  =  25.00
                  Electrical balance (eq)  =  -4.240e-08
 Percent error, 100*(Cat-|An|)/(Cat+|An|)  =  -0.00
                               Iterations  =   5
                         Gamma iterations  =   3
                      Osmotic coefficient  =   0.92702
                         Density of water  =   0.99704
                                  Total H  = 1.110186e+02
                                  Total O  = 5.551906e+01

----------------------------Distribution of species----------------------------

                                                    Unscaled  Unscaled
                                Unscaled       Log       Log       Log    mole V
   Species          Molality    Activity  Molality  Activity     Gamma    cm³/mol

   OH-             1.288e-07   1.010e-07    -6.890    -6.996    -0.106     -3.84
   H+              1.238e-07   1.000e-07    -6.907    -7.000    -0.093      0.00
   H2O             5.551e+01   9.983e-01     1.744    -0.001     0.000     18.07
Cl            4.878e-02
   Cl-             4.878e-02   3.969e-02    -1.312    -1.401    -0.090     18.28
Mg            4.880e-03
   Mg+2            4.880e-03   2.094e-03    -2.312    -2.679    -0.367    -21.27
   MgOH+           3.740e-08   3.244e-08    -7.427    -7.489    -0.062     (0)  
Na            4.390e-02
   Na+             4.390e-02   3.530e-02    -1.358    -1.452    -0.095     -1.18
S(6)          2.440e-03
   SO4-2           2.440e-03   9.551e-04    -2.613    -3.020    -0.407     15.48

------------------------------Saturation indices-------------------------------

  Phase               SI** log IAP   log K(298 K,   1 atm)

  Bischofite      -10.11     -5.49    4.63  MgCl2:6H2O
  Bloedite         -9.25    -11.63   -2.37  Na2Mg(SO4)2:4H2O
  Epsomite         -3.82     -5.70   -1.88  MgSO4:7H2O
  Halite           -4.43     -2.85    1.58  NaCl
  Hexahydrite      -4.08     -5.70   -1.63  MgSO4:6H2O
  Hydrohalite      -4.38     -2.85    1.52  NaCl:2H2O
  Ice(s)           -0.10     -0.00    0.10  H2O
  Kieserite        -5.49     -5.70   -0.20  MgSO4:H2O
  Meridianite      -4.40     -5.71   -1.31  MgSO4:11H2O
  MgCl2:12H2O     -10.16     -5.49    4.67  MgCl2:12H2O
  MgCl2:8H2O       -9.65     -5.49    4.17  MgCl2:8H2O
  Mirabilite       -4.72     -5.93   -1.22  Na2SO4:10H2O
  Thenardite       -5.64     -5.92   -0.29  Na2SO4

**For a gas, SI = log10(fugacity). Fugacity = pressure * phi / 1 atm.
  For ideal gases, phi = 1.

-----------------------------------------
Beginning of batch-reaction calculations.
-----------------------------------------

Reaction step 1.

WARNING: Element Ca is contained in Anhydrite (which has 0.0 mass),	
but is not in solution or other phases.
WARNING: Element Ca is contained in Antarcticite (which has 0.0 mass),	
but is not in solution or other phases.
WARNING: Element K is contained in Aphthitalite (which has 0.0 mass),	
but is not in solution or other phases.
WARNING: Element C is contained in Aragonite (which has 0.0 mass),	
but is not in solution or other phases.
WARNING: Element Ca is contained in Aragonite (which has 0.0 mass),	
but is not in solution or other phases.
WARNING: Element K is contained in Arcanite (which has 0.0 mass),	
but is not in solution or other phases.
WARNING: Element C is contained in Calcite (which has 0.0 mass),	
but is not in solution or other phases.
WARNING: Element Ca is contained in Calcite (which has 0.0 mass),	
but is not in solution or other phases.
WARNING: Element K is contained in Carnallite (which has 0.0 mass),	
but is not in solution or other phases.
WARNING: Element C is contained in Dolomite (which has 0.0 mass),	
but is not in solution or other phases.
WARNING: Element Ca is contained in Dolomite (which has 0.0 mass),	
but is not in solution or other phases.
WARNING: Element Ca is contained in Gypsum (which has 0.0 mass),	
but is not in solution or other phases.
WARNING: Element C is contained in Hydromagnesite (which has 0.0 mass),	
but is not in solution or other phases.
WARNING: Element C is contained in Ikaite (which has 0.0 mass),	
but is not in solution or other phases.
WARNING: Element Ca is contained in Ikaite (which has 0.0 mass),	
but is not in solution or other phases.
WARNING: Element C is contained in Kalicinite (which has 0.0 mass),	
but is not in solution or other phases.
WARNING: Element K is contained in Kalicinite (which has 0.0 mass),	
but is not in solution or other phases.
WARNING: Element C is contained in Landsfordite (which has 0.0 mass),	
but is not in solution or other phases.
WARNING: Element C is contained in Magnesite (which has 0.0 mass),	
but is not in solution or other phases.
WARNING: Element C is contained in Na2CO3:7H2O (which has 0.0 mass),	
but is not in solution or other phases.
WARNING: Element C is contained in Nahcolite (which has 0.0 mass),	
but is not in solution or other phases.
WARNING: Element C is contained in Natron (which has 0.0 mass),	
but is not in solution or other phases.
WARNING: Element C is contained in Nesquehonite (which has 0.0 mass),	
but is not in solution or other phases.
WARNING: Element K is contained in Picromerite (which has 0.0 mass),	
but is not in solution or other phases.
WARNING: Element K is contained in Sylvite (which has 0.0 mass),	
but is not in solution or other phases.
WARNING: Element Ca is contained in Tachyhydrite (which has 0.0 mass),	
but is not in solution or other phases.
WARNING: Element C is contained in Trona (which has 0.0 mass),	
but is not in solution or other phases.
WARNING: Element C is contained in Vaterite (which has 0.0 mass),	
but is not in solution or other phases.
WARNING: Element Ca is contained in Vaterite (which has 0.0 mass),	
but is not in solution or other phases.
Using solution 1.	
Using pure phase assemblage 1.	
Using temperature 1.	

-------------------------------Phase assemblage--------------------------------

                                                      Moles in assemblage
Phase               SI  log IAP  log K(T, P)   Initial       Final       Delta

Anhydrite            Element not present.    0.000e+00           0   0.000e+00
Antarcticite         Element not present.    0.000e+00           0   0.000e+00
Aphthitalite         Element not present.    0.000e+00           0   0.000e+00
Aragonite            Element not present.    0.000e+00           0   0.000e+00
Arcanite             Element not present.    0.000e+00           0   0.000e+00
Bischofite      -10.23    -5.48      4.75    0.000e+00           0   0.000e+00
Bloedite         -9.12   -11.58     -2.46    0.000e+00           0   0.000e+00
Calcite              Element not present.    0.000e+00           0   0.000e+00
Carnallite           Element not present.    0.000e+00           0   0.000e+00
Dolomite             Element not present.    0.000e+00           0   0.000e+00
Epsomite         -3.47    -5.68     -2.21    0.000e+00           0   0.000e+00
Gypsum               Element not present.    0.000e+00           0   0.000e+00
Halite           -4.35    -2.85      1.50    0.000e+00           0   0.000e+00
Hexahydrite      -3.98    -5.68     -1.70    0.000e+00           0   0.000e+00
Hydrohalite      -4.11    -2.85      1.25    0.000e+00           0   0.000e+00
Hydromagnesite       Element not present.    0.000e+00           0   0.000e+00
Ice(s)           -0.00    -0.00      0.00    0.000e+00           0   0.000e+00
Ikaite               Element not present.    0.000e+00           0   0.000e+00
Kalicinite           Element not present.    0.000e+00           0   0.000e+00
Kieserite        -6.22    -5.67      0.55    0.000e+00           0   0.000e+00
Landsfordite         Element not present.    0.000e+00           0   0.000e+00
Magnesite            Element not present.    0.000e+00           0   0.000e+00
Meridianite      -3.36    -5.68     -2.32    0.000e+00           0   0.000e+00
MgCl2:12H2O      -8.33    -5.48      2.85    0.000e+00           0   0.000e+00
MgCl2:8H2O       -9.33    -5.48      3.85    0.000e+00           0   0.000e+00
Mirabilite       -3.40    -5.91     -2.51    0.000e+00           0   0.000e+00
Na2CO3:7H2O          Element not present.    0.000e+00           0   0.000e+00
Nahcolite            Element not present.    0.000e+00           0   0.000e+00
Natron               Element not present.    0.000e+00           0   0.000e+00
Nesquehonite         Element not present.    0.000e+00           0   0.000e+00
Picromerite          Element not present.    0.000e+00           0   0.000e+00
Sylvite              Element not present.    0.000e+00           0   0.000e+00
Tachyhydrite         Element not present.    0.000e+00           0   0.000e+00
Thenardite       -5.59    -5.90     -0.31    0.000e+00           0   0.000e+00
Trona                Element not present.    0.000e+00           0   0.000e+00
Vaterite             Element not present.    0.000e+00           0   0.000e+00

-----------------------------Solution composition------------------------------

	Elements           Molality       Moles

	Cl                4.878e-02   4.878e-02
	Mg                4.880e-03   4.880e-03
	Na                4.390e-02   4.390e-02
	S                 2.440e-03   2.440e-03

----------------------------Description of solution----------------------------

                                       pH  =   7.603      Charge balance
                                       pe  =   4.000      Adjusted to redox equilibrium
      Specific Conductance (µS/cm,   0°C)  = 2878
                          Density (g/cm³)  =   1.00234
                               Volume (L)  =   1.00075
                        Activity of water  =   0.998
                 Ionic strength (mol/kgw)  =   6.098e-02
                       Mass of water (kg)  =   1.000e+00
                 Total alkalinity (eq/kg)  =   4.240e-08
                         Temperature (°C)  =   0.00
                  Electrical balance (eq)  =  -4.240e-08
 Percent error, 100*(Cat-|An|)/(Cat+|An|)  =  -0.00
                               Iterations  =   5
                         Gamma iterations  =   2
                      Osmotic coefficient  =   0.92664
                         Density of water  =   0.99984
                                  Total H  = 1.110186e+02
                                  Total O  = 5.551906e+01

----------------------------Distribution of species----------------------------

                                                    Unscaled  Unscaled
                                Unscaled       Log       Log       Log    mole V
   Species          Molality    Activity  Molality  Activity     Gamma    cm³/mol

   OH-             5.913e-08   4.618e-08    -7.228    -7.336    -0.107     -5.94
   H+              3.066e-08   2.495e-08    -7.513    -7.603    -0.090      0.00
   H2O             5.551e+01   9.983e-01     1.744    -0.001     0.000     18.02
Cl            4.878e-02
   Cl-             4.878e-02   3.973e-02    -1.312    -1.401    -0.089     16.61
Mg            4.880e-03
   Mg+2            4.880e-03   2.126e-03    -2.312    -2.672    -0.361    -20.34
   MgOH+           1.393e-08   1.220e-08    -7.856    -7.914    -0.058     (0)  
Na            4.390e-02
   Na+             4.390e-02   3.541e-02    -1.358    -1.451    -0.093     -3.18
S(6)          2.440e-03
   SO4-2           2.440e-03   9.983e-04    -2.613    -3.001    -0.388      9.66

------------------------------Saturation indices-------------------------------

  Phase               SI** log IAP   log K(273 K,   1 atm)

  Bischofite      -10.23     -5.48    4.75  MgCl2:6H2O
  Bloedite         -9.12    -11.58   -2.46  Na2Mg(SO4)2:4H2O
  Epsomite         -3.47     -5.68   -2.21  MgSO4:7H2O
  Halite           -4.35     -2.85    1.50  NaCl
  Hexahydrite      -3.98     -5.68   -1.70  MgSO4:6H2O
  Hydrohalite      -4.11     -2.85    1.25  NaCl:2H2O
  Ice(s)           -0.00     -0.00    0.00  H2O
  Kieserite        -6.22     -5.67    0.55  MgSO4:H2O
  Meridianite      -3.36     -5.68   -2.32  MgSO4:11H2O
  MgCl2:12H2O      -8.33     -5.48    2.85  MgCl2:12H2O
  MgCl2:8H2O       -9.33     -5.48    3.85  MgCl2:8H2O
  Mirabilite       -3.40     -5.91   -2.51  Na2SO4:10H2O
  Thenardite       -5.59     -5.90   -0.31  Na2SO4

**For a gas, SI = log10(fugacity). Fugacity = pressure * phi / 1 atm.
  For ideal gases, phi = 1.

Reaction step 2.

WARNING: Element Ca is contained in Anhydrite (which has 0.0 mass),	
but is not in solution or other phases.
WARNING: Element Ca is contained in Antarcticite (which has 0.0 mass),	
but is not in solution or other phases.
WARNING: Element K is contained in Aphthitalite (which has 0.0 mass),	
but is not in solution or other phases.
WARNING: Element C is contained in Aragonite (which has 0.0 mass),	
but is not in solution or other phases.
WARNING: Element Ca is contained in Aragonite (which has 0.0 mass),	
but is not in solution or other phases.
WARNING: Element K is contained in Arcanite (which has 0.0 mass),	
but is not in solution or other phases.
WARNING: Element C is contained in Calcite (which has 0.0 mass),	
but is not in solution or other phases.
WARNING: Element Ca is contained in Calcite (which has 0.0 mass),	
but is not in solution or other phases.
WARNING: Element K is contained in Carnallite (which has 0.0 mass),	
but is not in solution or other phases.
WARNING: Element C is contained in Dolomite (which has 0.0 mass),	
but is not in solution or other phases.
WARNING: Element Ca is contained in Dolomite (which has 0.0 mass),	
but is not in solution or other phases.
WARNING: Element Ca is contained in Gypsum (which has 0.0 mass),	
but is not in solution or other phases.
WARNING: Element C is contained in Hydromagnesite (which has 0.0 mass),	
but is not in solution or other phases.
WARNING: Element C is contained in Ikaite (which has 0.0 mass),	
but is not in solution or other phases.
WARNING: Element Ca is contained in Ikaite (which has 0.0 mass),	
but is not in solution or other phases.
WARNING: Element C is contained in Kalicinite (which has 0.0 mass),	
but is not in solution or other phases.
WARNING: Element K is contained in Kalicinite (which has 0.0 mass),	
but is not in solution or other phases.
WARNING: Element C is contained in Landsfordite (which has 0.0 mass),	
but is not in solution or other phases.
WARNING: Element C is contained in Magnesite (which has 0.0 mass),	
but is not in solution or other phases.
WARNING: Element C is contained in Na2CO3:7H2O (which has 0.0 mass),	
but is not in solution or other phases.
WARNING: Element C is contained in Nahcolite (which has 0.0 mass),	
but is not in solution or other phases.
WARNING: Element C is contained in Natron (which has 0.0 mass),	
but is not in solution or other phases.
WARNING: Element C is contained in Nesquehonite (which has 0.0 mass),	
but is not in solution or other phases.
WARNING: Element K is contained in Picromerite (which has 0.0 mass),	
but is not in solution or other phases.
WARNING: Element K is contained in Sylvite (which has 0.0 mass),	
but is not in solution or other phases.
WARNING: Element Ca is contained in Tachyhydrite (which has 0.0 mass),	
but is not in solution or other phases.
WARNING: Element C is contained in Trona (which has 0.0 mass),	
but is not in solution or other phases.
WARNING: Element C is contained in Vaterite (which has 0.0 mass),	
but is not in solution or other phases.
WARNING: Element Ca is contained in Vaterite (which has 0.0 mass),	
but is not in solution or other phases.
Using solution 1.	
Using pure phase assemblage 1.	
Using temperature 1.	

-------------------------------Phase assemblage--------------------------------

                                                      Moles in assemblage
Phase               SI  log IAP  log K(T, P)   Initial       Final       Delta

Anhydrite            Element not present.    0.000e+00           0   0.000e+00
Antarcticite         Element not present.    0.000e+00           0   0.000e+00
Aphthitalite         Element not present.    0.000e+00           0   0.000e+00
Aragonite            Element not present.    0.000e+00           0   0.000e+00
Arcanite             Element not present.    0.000e+00           0   0.000e+00
Bischofite      -10.23    -5.48      4.75    0.000e+00           0   0.000e+00
Bloedite         -9.12   -11.58     -2.46    0.000e+00           0   0.000e+00
Calcite              Element not present.    0.000e+00           0   0.000e+00
Carnallite           Element not present.    0.000e+00           0   0.000e+00
Dolomite             Element not present.    0.000e+00           0   0.000e+00
Epsomite         -3.47    -5.68     -2.21    0.000e+00           0   0.000e+00
Gypsum               Element not present.    0.000e+00           0   0.000e+00
Halite           -4.35    -2.85      1.50    0.000e+00           0   0.000e+00
Hexahydrite      -3.98    -5.68     -1.70    0.000e+00           0   0.000e+00
Hydrohalite      -4.11    -2.85      1.25    0.000e+00           0   0.000e+00
Hydromagnesite       Element not present.    0.000e+00           0   0.000e+00
Ice(s)           -0.00    -0.00     -0.00    0.000e+00           0   0.000e+00
Ikaite               Element not present.    0.000e+00           0   0.000e+00
Kalicinite           Element not present.    0.000e+00           0   0.000e+00
Kieserite        -6.23    -5.67      0.55    0.000e+00           0   0.000e+00
Landsfordite         Element not present.    0.000e+00           0   0.000e+00
Magnesite            Element not present.    0.000e+00           0   0.000e+00
Meridianite      -3.35    -5.68     -2.33    0.000e+00           0   0.000e+00
MgCl2:12H2O      -8.32    -5.48      2.84    0.000e+00           0   0.000e+00
MgCl2:8H2O       -9.33    -5.48      3.85    0.000e+00           0   0.000e+00
Mirabilite       -3.39    -5.91     -2.52    0.000e+00           0   0.000e+00
Na2CO3:7H2O          Element not present.    0.000e+00           0   0.000e+00
Nahcolite            Element not present.    0.000e+00           0   0.000e+00
Natron               Element not present.    0.000e+00           0   0.000e+00
Nesquehonite         Element not present.    0.000e+00           0   0.000e+00
Picromerite          Element not present.    0.000e+00           0   0.000e+00
Sylvite              Element not present.    0.000e+00           0   0.000e+00
Tachyhydrite         Element not present.    0.000e+00           0   0.000e+00
Thenardite       -5.59    -5.90     -0.31    0.000e+00           0   0.000e+00
Trona                Element not present.    0.000e+00           0   0.000e+00
Vaterite             Element not present.    0.000e+00           0   0.000e+00

-----------------------------Solution composition------------------------------

	Elements           Molality       Moles

	Cl                4.878e-02   4.878e-02
	Mg                4.880e-03   4.880e-03
	Na                4.390e-02   4.390e-02
	S                 2.440e-03   2.440e-03

----------------------------Description of solution----------------------------

                                       pH  =   7.606      Charge balance
                                       pe  =   4.000      Adjusted to redox equilibrium
      Specific Conductance (µS/cm,  -0°C)  = 2868
                          Density (g/cm³)  =   1.00233
                               Volume (L)  =   1.00076
                        Activity of water  =   0.998
                 Ionic strength (mol/kgw)  =   6.098e-02
                       Mass of water (kg)  =   1.000e+00
                 Total alkalinity (eq/kg)  =   4.240e-08
                         Temperature (°C)  =  -0.10
                  Electrical balance (eq)  =  -4.240e-08
 Percent error, 100*(Cat-|An|)/(Cat+|An|)  =  -0.00
                               Iterations  =   5
                         Gamma iterations  =   2
                      Osmotic coefficient  =   0.92663
                         Density of water  =   0.99983
                                  Total H  = 1.110186e+02
                                  Total O  = 5.551906e+01

----------------------------Distribution of species----------------------------

                                                    Unscaled  Unscaled
                                Unscaled       Log       Log       Log    mole V
   Species          Molality    Activity  Molality  Activity     Gamma    cm³/mol

   OH-             5.896e-08   4.604e-08    -7.229    -7.337    -0.107     -5.96
   H+              3.044e-08   2.477e-08    -7.517    -7.606    -0.090      0.00
   H2O             5.551e+01   9.983e-01     1.744    -0.001     0.000     18.02
Cl            4.878e-02
   Cl-             4.878e-02   3.973e-02    -1.312    -1.401    -0.089     16.59
Mg            4.880e-03
   Mg+2            4.880e-03   2.126e-03    -2.312    -2.672    -0.361    -20.33
   MgOH+           1.388e-08   1.216e-08    -7.857    -7.915    -0.058     (0)  
Na            4.390e-02
   Na+             4.390e-02   3.541e-02    -1.358    -1.451    -0.093     -3.20
S(6)          2.440e-03
   SO4-2           2.440e-03   9.985e-04    -2.613    -3.001    -0.388      9.62

------------------------------Saturation indices-------------------------------

  Phase               SI** log IAP   log K(273 K,   1 atm)

  Bischofite      -10.23     -5.48    4.75  MgCl2:6H2O
  Bloedite         -9.12    -11.58   -2.46  Na2Mg(SO4)2:4H2O
  Epsomite         -3.47     -5.68   -2.21  MgSO4:7H2O
  Halite           -4.35     -2.85    1.50  NaCl
  Hexahydrite      -3.98     -5.68   -1.70  MgSO4:6H2O
  Hydrohalite      -4.11     -2.85    1.25  NaCl:2H2O
  Ice(s)           -0.00     -0.00   -0.00  H2O
  Kieserite        -6.23     -5.67    0.55  MgSO4:H2O
  Meridianite      -3.35     -5.68   -2.33  MgSO4:11H2O
  MgCl2:12H2O      -8.32     -5.48    2.84  MgCl2:12H2O
  MgCl2:8H2O       -9.33     -5.48    3.85  MgCl2:8H2O
  Mirabilite       -3.39     -5.91   -2.52  Na2SO4:10H2O
  Thenardite       -5.59     -5.90   -0.31  Na2SO4

**For a gas, SI = log10(fugacity). Fugacity = pressure * phi / 1 atm.
  For ideal gases, phi = 1.

Reaction step 3.

WARNING: Element Ca is contained in Anhydrite (which has 0.0 mass),	
but is not in solution or other phases.
WARNING: Element Ca is contained in Antarcticite (which has 0.0 mass),	
but is not in solution or other phases.
WARNING: Element K is contained in Aphthitalite (which has 0.0 mass),	
but is not in solution or other phases.
WARNING: Element C is contained in Aragonite (which has 0.0 mass),	
but is not in solution or other phases.
WARNING: Element Ca is contained in Aragonite (which has 0.0 mass),	
but is not in solution or other phases.
WARNING: Element K is contained in Arcanite (which has 0.0 mass),	
but is not in solution or other phases.
WARNING: Element C is contained in Calcite (which has 0.0 mass),	
but is not in solution or other phases.
WARNING: Element Ca is contained in Calcite (which has 0.0 mass),	
but is not in solution or other phases.
WARNING: Element K is contained in Carnallite (which has 0.0 mass),	
but is not in solution or other phases.
WARNING: Element C is contained in Dolomite (which has 0.0 mass),	
but is not in solution or other phases.
WARNING: Element Ca is contained in Dolomite (which has 0.0 mass),	
but is not in solution or other phases.
WARNING: Element Ca is contained in Gypsum (which has 0.0 mass),	
but is not in solution or other phases.
WARNING: Element C is contained in Hydromagnesite (which has 0.0 mass),	
but is not in solution or other phases.
WARNING: Element C is contained in Ikaite (which has 0.0 mass),	
but is not in solution or other phases.
WARNING: Element Ca is contained in Ikaite (which has 0.0 mass),	
but is not in solution or other phases.
WARNING: Element C is contained in Kalicinite (which has 0.0 mass),	
but is not in solution or other phases.
WARNING: Element K is contained in Kalicinite (which has 0.0 mass),	
but is not in solution or other phases.
WARNING: Element C is contained in Landsfordite (which has 0.0 mass),	
but is not in solution or other phases.
WARNING: Element C is contained in Magnesite (which has 0.0 mass),	
but is not in solution or other phases.
WARNING: Element C is contained in Na2CO3:7H2O (which has 0.0 mass),	
but is not in solution or other phases.
WARNING: Element C is contained in Nahcolite (which has 0.0 mass),	
but is not in solution or other phases.
WARNING: Element C is contained in Natron (which has 0.0 mass),	
but is not in solution or other phases.
WARNING: Element C is contained in Nesquehonite (which has 0.0 mass),	
but is not in solution or other phases.
WARNING: Element K is contained in Picromerite (which has 0.0 mass),	
but is not in solution or other phases.
WARNING: Element K is contained in Sylvite (which has 0.0 mass),	
but is not in solution or other phases.
WARNING: Element Ca is contained in Tachyhydrite (which has 0.0 mass),	
but is not in solution or other phases.
WARNING: Element C is contained in Trona (which has 0.0 mass),	
but is not in solution or other phases.
WARNING: Element C is contained in Vaterite (which has 0.0 mass),	
but is not in solution or other phases.
WARNING: Element Ca is contained in Vaterite (which has 0.0 mass),	
but is not in solution or other phases.
WARNING: Maximum iterations exceeded, 200

WARNING: Numerical method failed with this set of convergence parameters.

WARNING: Trying smaller step size, pe step size 10, 5 ... 

WARNING: Element Ca is contained in Anhydrite (which has 0.0 mass),	
but is not in solution or other phases.
WARNING: Element Ca is contained in Antarcticite (which has 0.0 mass),	
but is not in solution or other phases.
WARNING: Element K is contained in Aphthitalite (which has 0.0 mass),	
but is not in solution or other phases.
WARNING: Element C is contained in Aragonite (which has 0.0 mass),	
but is not in solution or other phases.
WARNING: Element Ca is contained in Aragonite (which has 0.0 mass),	
but is not in solution or other phases.
WARNING: Element K is contained in Arcanite (which has 0.0 mass),	
but is not in solution or other phases.
WARNING: Element C is contained in Calcite (which has 0.0 mass),	
but is not in solution or other phases.
WARNING: Element Ca is contained in Calcite (which has 0.0 mass),	
but is not in solution or other phases.
WARNING: Element K is contained in Carnallite (which has 0.0 mass),	
but is not in solution or other phases.
WARNING: Element C is contained in Dolomite (which has 0.0 mass),	
but is not in solution or other phases.
Using solution 1.	
Using pure phase assemblage 1.	
Using temperature 1.	

-------------------------------Phase assemblage--------------------------------

                                                      Moles in assemblage
Phase               SI  log IAP  log K(T, P)   Initial       Final       Delta

Anhydrite            Element not present.    0.000e+00           0   0.000e+00
Antarcticite         Element not present.    0.000e+00           0   0.000e+00
Aphthitalite         Element not present.    0.000e+00           0   0.000e+00
Aragonite            Element not present.    0.000e+00           0   0.000e+00
Arcanite             Element not present.    0.000e+00           0   0.000e+00
Bischofite      -10.07    -5.33      4.75    0.000e+00           0   0.000e+00
Bloedite         -8.89   -11.35     -2.46    0.000e+00           0   0.000e+00
Calcite              Element not present.    0.000e+00           0   0.000e+00
Carnallite           Element not present.    0.000e+00           0   0.000e+00
Dolomite             Element not present.    0.000e+00           0   0.000e+00
Epsomite         -3.39    -5.60     -2.21    0.000e+00           0   0.000e+00
Gypsum               Element not present.    0.000e+00           0   0.000e+00
Halite           -4.24    -2.74      1.50    0.000e+00           0   0.000e+00
Hexahydrite      -3.90    -5.60     -1.70    0.000e+00           0   0.000e+00
Hydrohalite      -3.99    -2.74      1.25    0.000e+00           0   0.000e+00
Hydromagnesite       Element not present.    0.000e+00           0   0.000e+00
Ice(s)            0.00    -0.00     -0.00    0.000e+00   7.167e+00   7.167e+00
Ikaite               Element not present.    0.000e+00           0   0.000e+00
Kalicinite           Element not present.    0.000e+00           0   0.000e+00
Kieserite        -6.15    -5.59      0.56    0.000e+00           0   0.000e+00
Landsfordite         Element not present.    0.000e+00           0   0.000e+00
Magnesite            Element not present.    0.000e+00           0   0.000e+00
Meridianite      -3.27    -5.60     -2.33    0.000e+00           0   0.000e+00
MgCl2:12H2O      -8.17    -5.33      2.83    0.000e+00           0   0.000e+00
MgCl2:8H2O       -9.17    -5.33      3.85    0.000e+00           0   0.000e+00
Mirabilite       -3.24    -5.76     -2.52    0.000e+00           0   0.000e+00
Na2CO3:7H2O          Element not present.    0.000e+00           0   0.000e+00
Nahcolite            Element not present.    0.000e+00           0   0.000e+00
Natron               Element not present.    0.000e+00           0   0.000e+00
Nesquehonite         Element not present.    0.000e+00           0   0.000e+00
Picromerite          Element not present.    0.000e+00           0   0.000e+00
Sylvite              Element not present.    0.000e+00           0   0.000e+00
Tachyhydrite         Element not present.    0.000e+00           0   0.000e+00
Thenardite       -5.45    -5.75     -0.31    0.000e+00           0   0.000e+00
Trona                Element not present.    0.000e+00           0   0.000e+00
Vaterite             Element not present.    0.000e+00           0   0.000e+00

-----------------------------Solution composition------------------------------

	Elements           Molality       Moles

	Cl                5.601e-02   4.878e-02
	Mg                5.604e-03   4.880e-03
	Na                5.041e-02   4.390e-02
	S                 2.802e-03   2.440e-03

----------------------------Description of solution----------------------------

                                       pH  =   7.626      Charge balance
                                       pe  =   4.000      Adjusted to redox equilibrium
      Specific Conductance (µS/cm,  -0°C)  = 3252
                          Density (g/cm³)  =   1.00269
                               Volume (L)  =   0.87163
                        Activity of water  =   0.998
                 Ionic strength (mol/kgw)  =   7.002e-02
                       Mass of water (kg)  =   8.709e-01
                 Total alkalinity (eq/kg)  =   4.869e-08
                         Temperature (°C)  =  -0.20
                  Electrical balance (eq)  =  -4.240e-08
 Percent error, 100*(Cat-|An|)/(Cat+|An|)  =  -0.00
                               Iterations  =   5 (1409 overall)
                         Gamma iterations  =   1
                      Osmotic coefficient  =   0.92361
                         Density of water  =   0.99983
                                  Total H  = 9.668419e+01
                                  Total O  = 4.835185e+01

----------------------------Distribution of species----------------------------

                                                    Unscaled  Unscaled
                                Unscaled       Log       Log       Log    mole V
   Species          Molality    Activity  Molality  Activity     Gamma    cm³/mol

   OH-             6.215e-08   4.775e-08    -7.207    -7.321    -0.114     -5.95
   H+              2.934e-08   2.364e-08    -7.533    -7.626    -0.094      0.00
   H2O             5.551e+01   9.981e-01     1.744    -0.001     0.000     18.02
Cl            5.601e-02
   Cl-             5.601e-02   4.516e-02    -1.252    -1.345    -0.094     16.60
Mg            5.604e-03
   Mg+2            5.603e-03   2.341e-03    -2.252    -2.631    -0.379    -20.30
   MgOH+           1.588e-08   1.388e-08    -7.799    -7.858    -0.059     (0)  
Na            5.041e-02
   Na+             5.041e-02   4.020e-02    -1.297    -1.396    -0.098     -3.18
S(6)          2.802e-03
   SO4-2           2.802e-03   1.089e-03    -2.553    -2.963    -0.410      9.69

------------------------------Saturation indices-------------------------------

  Phase               SI** log IAP   log K(272 K,   1 atm)

  Bischofite      -10.07     -5.33    4.75  MgCl2:6H2O
  Bloedite         -8.89    -11.35   -2.46  Na2Mg(SO4)2:4H2O
  Epsomite         -3.39     -5.60   -2.21  MgSO4:7H2O
  Halite           -4.24     -2.74    1.50  NaCl
  Hexahydrite      -3.90     -5.60   -1.70  MgSO4:6H2O
  Hydrohalite      -3.99     -2.74    1.25  NaCl:2H2O
  Ice(s)            0.00     -0.00   -0.00  H2O
  Kieserite        -6.15     -5.59    0.56  MgSO4:H2O
  Meridianite      -3.27     -5.60   -2.33  MgSO4:11H2O
  MgCl2:12H2O      -8.17     -5.33    2.83  MgCl2:12H2O
  MgCl2:8H2O       -9.17     -5.33    3.85  MgCl2:8H2O
  Mirabilite       -3.24     -5.76   -2.52  Na2SO4:10H2O
  Thenardite       -5.45     -5.75   -0.31  Na2SO4

**For a gas, SI = log10(fugacity). Fugacity = pressure * phi / 1 atm.
  For ideal gases, phi = 1.

Reaction step 4.

Using solution 1.	
Using pure phase assemblage 1.	
Using temperature 1.	

-------------------------------Phase assemblage--------------------------------

                                                      Moles in assemblage
Phase               SI  log IAP  log K(T, P)   Initial       Final       Delta

Anhydrite            Element not present.    0.000e+00           0   0.000e+00
Antarcticite         Element not present.    0.000e+00           0   0.000e+00
Aphthitalite         Element not present.    0.000e+00           0   0.000e+00
Aragonite            Element not present.    0.000e+00           0   0.000e+00
Arcanite             Element not present.    0.000e+00           0   0.000e+00
Bischofite       -9.62    -4.87      4.75    0.000e+00           0   0.000e+00
Bloedite         -8.22   -10.68     -2.46    0.000e+00           0   0.000e+00
Calcite              Element not present.    0.000e+00           0   0.000e+00
Carnallite           Element not present.    0.000e+00           0   0.000e+00
Dolomite             Element not present.    0.000e+00           0   0.000e+00
Epsomite         -3.16    -5.37     -2.22    0.000e+00           0   0.000e+00
Gypsum               Element not present.    0.000e+00           0   0.000e+00
Halite           -3.90    -2.41      1.49    0.000e+00           0   0.000e+00
Hexahydrite      -3.67    -5.37     -1.70    0.000e+00           0   0.000e+00
Hydrohalite      -3.66    -2.41      1.25    0.000e+00           0   0.000e+00
Hydromagnesite       Element not present.    0.000e+00           0   0.000e+00
Ice(s)            0.00    -0.00     -0.00    0.000e+00   2.367e+01   2.367e+01
Ikaite               Element not present.    0.000e+00           0   0.000e+00
Kalicinite           Element not present.    0.000e+00           0   0.000e+00
Kieserite        -5.92    -5.36      0.56    0.000e+00           0   0.000e+00
Landsfordite         Element not present.    0.000e+00           0   0.000e+00
Magnesite            Element not present.    0.000e+00           0   0.000e+00
Meridianite      -3.04    -5.38     -2.34    0.000e+00           0   0.000e+00
MgCl2:12H2O      -7.71    -4.88      2.83    0.000e+00           0   0.000e+00
MgCl2:8H2O       -8.72    -4.87      3.85    0.000e+00           0   0.000e+00
Mirabilite       -2.80    -5.33     -2.53    0.000e+00           0   0.000e+00
Na2CO3:7H2O          Element not present.    0.000e+00           0   0.000e+00
Nahcolite            Element not present.    0.000e+00           0   0.000e+00
Natron               Element not present.    0.000e+00           0   0.000e+00
Nesquehonite         Element not present.    0.000e+00           0   0.000e+00
Picromerite          Element not present.    0.000e+00           0   0.000e+00
Sylvite              Element not present.    0.000e+00           0   0.000e+00
Tachyhydrite         Element not present.    0.000e+00           0   0.000e+00
Thenardite       -5.01    -5.32     -0.31    0.000e+00           0   0.000e+00
Trona                Element not present.    0.000e+00           0   0.000e+00
Vaterite             Element not present.    0.000e+00           0   0.000e+00

-----------------------------Solution composition------------------------------

	Elements           Molality       Moles

	Cl                8.505e-02   4.878e-02
	Mg                8.509e-03   4.880e-03
	Na                7.654e-02   4.390e-02
	S                 4.254e-03   2.440e-03

----------------------------Description of solution----------------------------

                                       pH  =   7.692      Charge balance
                                       pe  =   4.000      Adjusted to redox equilibrium
      Specific Conductance (µS/cm,  -0°C)  = 4775
                          Density (g/cm³)  =   1.00416
                               Volume (L)  =   0.57423
                        Activity of water  =   0.997
                 Ionic strength (mol/kgw)  =   1.063e-01
                       Mass of water (kg)  =   5.735e-01
                 Total alkalinity (eq/kg)  =   7.393e-08
                         Temperature (°C)  =  -0.30
                  Electrical balance (eq)  =  -4.240e-08
 Percent error, 100*(Cat-|An|)/(Cat+|An|)  =  -0.00
                               Iterations  =   6 (1410 overall)
                         Gamma iterations  =   1
                      Osmotic coefficient  =   0.91463
                         Density of water  =   0.99982
                                  Total H  = 6.367224e+01
                                  Total O  = 3.184588e+01

----------------------------Distribution of species----------------------------

                                                    Unscaled  Unscaled
                                Unscaled       Log       Log       Log    mole V
   Species          Molality    Activity  Molality  Activity     Gamma    cm³/mol

   OH-             7.561e-08   5.493e-08    -7.121    -7.260    -0.139     -5.88
   H+              2.600e-08   2.033e-08    -7.585    -7.692    -0.107      0.00
   H2O             5.551e+01   9.971e-01     1.744    -0.001     0.000     18.02
Cl            8.505e-02
   Cl-             8.505e-02   6.637e-02    -1.070    -1.178    -0.108     16.63
Mg            8.509e-03
   Mg+2            8.509e-03   3.112e-03    -2.070    -2.507    -0.437    -20.21
   MgOH+           2.432e-08   2.121e-08    -7.614    -7.673    -0.059     (0)  
Na            7.654e-02
   Na+             7.654e-02   5.882e-02    -1.116    -1.230    -0.114     -3.09
S(6)          4.254e-03
   SO4-2           4.254e-03   1.395e-03    -2.371    -2.855    -0.484     10.02

------------------------------Saturation indices-------------------------------

  Phase               SI** log IAP   log K(272 K,   1 atm)

  Bischofite       -9.62     -4.87    4.75  MgCl2:6H2O
  Bloedite         -8.22    -10.68   -2.46  Na2Mg(SO4)2:4H2O
  Epsomite         -3.16     -5.37   -2.22  MgSO4:7H2O
  Halite           -3.90     -2.41    1.49  NaCl
  Hexahydrite      -3.67     -5.37   -1.70  MgSO4:6H2O
  Hydrohalite      -3.66     -2.41    1.25  NaCl:2H2O
  Ice(s)            0.00     -0.00   -0.00  H2O
  Kieserite        -5.92     -5.36    0.56  MgSO4:H2O
  Meridianite      -3.04     -5.38   -2.34  MgSO4:11H2O
  MgCl2:12H2O      -7.71     -4.88    2.83  MgCl2:12H2O
  MgCl2:8H2O       -8.72     -4.87    3.85  MgCl2:8H2O
  Mirabilite       -2.80     -5.33   -2.53  Na2SO4:10H2O
  Thenardite       -5.01     -5.32   -0.31  Na2SO4

**For a gas, SI = log10(fugacity). Fugacity = pressure * phi / 1 atm.
  For ideal gases, phi = 1.

Reaction step 5.

Using solution 1.	
Using pure phase assemblage 1.	
Using temperature 1.	

-------------------------------Phase assemblage--------------------------------

                                                      Moles in assemblage
Phase               SI  log IAP  log K(T, P)   Initial       Final       Delta

Anhydrite            Element not present.    0.000e+00           0   0.000e+00
Antarcticite         Element not present.    0.000e+00           0   0.000e+00
Aphthitalite         Element not present.    0.000e+00           0   0.000e+00
Aragonite            Element not present.    0.000e+00           0   0.000e+00
Arcanite             Element not present.    0.000e+00           0   0.000e+00
Bischofite       -9.30    -4.55      4.75    0.000e+00           0   0.000e+00
Bloedite         -7.76   -10.23     -2.46    0.000e+00           0   0.000e+00
Calcite              Element not present.    0.000e+00           0   0.000e+00
Carnallite           Element not present.    0.000e+00           0   0.000e+00
Dolomite             Element not present.    0.000e+00           0   0.000e+00
Epsomite         -3.00    -5.22     -2.22    0.000e+00           0   0.000e+00
Gypsum               Element not present.    0.000e+00           0   0.000e+00
Halite           -3.67    -2.17      1.49    0.000e+00           0   0.000e+00
Hexahydrite      -3.51    -5.22     -1.70    0.000e+00           0   0.000e+00
Hydrohalite      -3.43    -2.18      1.25    0.000e+00           0   0.000e+00
Hydromagnesite       Element not present.    0.000e+00           0   0.000e+00
Ice(s)            0.00    -0.00     -0.00    0.000e+00   3.182e+01   3.182e+01
Ikaite               Element not present.    0.000e+00           0   0.000e+00
Kalicinite           Element not present.    0.000e+00           0   0.000e+00
Kieserite        -5.77    -5.21      0.57    0.000e+00           0   0.000e+00
Landsfordite         Element not present.    0.000e+00           0   0.000e+00
Magnesite            Element not present.    0.000e+00           0   0.000e+00
Meridianite      -2.88    -5.22     -2.34    0.000e+00           0   0.000e+00
MgCl2:12H2O      -7.38    -4.56      2.82    0.000e+00           0   0.000e+00
MgCl2:8H2O       -8.40    -4.55      3.84    0.000e+00           0   0.000e+00
Mirabilite       -2.50    -5.03     -2.53    0.000e+00           0   0.000e+00
Na2CO3:7H2O          Element not present.    0.000e+00           0   0.000e+00
Nahcolite            Element not present.    0.000e+00           0   0.000e+00
Natron               Element not present.    0.000e+00           0   0.000e+00
Nesquehonite         Element not present.    0.000e+00           0   0.000e+00
Picromerite          Element not present.    0.000e+00           0   0.000e+00
Sylvite              Element not present.    0.000e+00           0   0.000e+00
Tachyhydrite         Element not present.    0.000e+00           0   0.000e+00
Thenardite       -4.70    -5.01     -0.31    0.000e+00           0   0.000e+00
Trona                Element not present.    0.000e+00           0   0.000e+00
Vaterite             Element not present.    0.000e+00           0   0.000e+00

-----------------------------Solution composition------------------------------

	Elements           Molality       Moles

	Cl                1.143e-01   4.878e-02
	Mg                1.143e-02   4.880e-03
	Na                1.029e-01   4.390e-02
	S                 5.717e-03   2.440e-03

----------------------------Description of solution----------------------------

                                       pH  =   7.749      Charge balance
                                       pe  =   4.000      Adjusted to redox equilibrium
      Specific Conductance (µS/cm,  -0°C)  = 6243
                          Density (g/cm³)  =   1.00562
                               Volume (L)  =   0.42746
                        Activity of water  =   0.996
                 Ionic strength (mol/kgw)  =   1.429e-01
                       Mass of water (kg)  =   4.268e-01
                 Total alkalinity (eq/kg)  =   9.935e-08
                         Temperature (°C)  =  -0.40
                  Electrical balance (eq)  =  -4.240e-08
 Percent error, 100*(Cat-|An|)/(Cat+|An|)  =  -0.00
                               Iterations  =   8 (1412 overall)
                         Gamma iterations  =   1
                      Osmotic coefficient  =   0.90861
                         Density of water  =   0.99981
                                  Total H  = 4.737967e+01
                                  Total O  = 2.369959e+01

----------------------------Distribution of species----------------------------

                                                    Unscaled  Unscaled
                                Unscaled       Log       Log       Log    mole V
   Species          Molality    Activity  Molality  Activity     Gamma    cm³/mol

   OH-             8.933e-08   6.192e-08    -7.049    -7.208    -0.159     -5.81
   H+              2.330e-08   1.783e-08    -7.633    -7.749    -0.116      0.00
   H2O             5.551e+01   9.962e-01     1.744    -0.002     0.000     18.02
Cl            1.143e-01
   Cl-             1.143e-01   8.707e-02    -0.942    -1.060    -0.118     16.67
Mg            1.143e-02
   Mg+2            1.143e-02   3.793e-03    -1.942    -2.421    -0.479    -20.13
   MgOH+           3.332e-08   2.913e-08    -7.477    -7.536    -0.058     (0)  
Na            1.029e-01
   Na+             1.029e-01   7.686e-02    -0.988    -1.114    -0.127     -3.02
S(6)          5.717e-03
   SO4-2           5.717e-03   1.639e-03    -2.243    -2.785    -0.543     10.29

------------------------------Saturation indices-------------------------------

  Phase               SI** log IAP   log K(272 K,   1 atm)

  Bischofite       -9.30     -4.55    4.75  MgCl2:6H2O
  Bloedite         -7.76    -10.23   -2.46  Na2Mg(SO4)2:4H2O
  Epsomite         -3.00     -5.22   -2.22  MgSO4:7H2O
  Halite           -3.67     -2.17    1.49  NaCl
  Hexahydrite      -3.51     -5.22   -1.70  MgSO4:6H2O
  Hydrohalite      -3.43     -2.18    1.25  NaCl:2H2O
  Ice(s)            0.00     -0.00   -0.00  H2O
  Kieserite        -5.77     -5.21    0.57  MgSO4:H2O
  Meridianite      -2.88     -5.22   -2.34  MgSO4:11H2O
  MgCl2:12H2O      -7.38     -4.56    2.82  MgCl2:12H2O
  MgCl2:8H2O       -8.40     -4.55    3.84  MgCl2:8H2O
  Mirabilite       -2.50     -5.03   -2.53  Na2SO4:10H2O
  Thenardite       -4.70     -5.01   -0.31  Na2SO4

**For a gas, SI = log10(fugacity). Fugacity = pressure * phi / 1 atm.
  For ideal gases, phi = 1.

Reaction step 6.

Using solution 1.	
Using pure phase assemblage 1.	
Using temperature 1.	

-------------------------------Phase assemblage--------------------------------

                                                      Moles in assemblage
Phase               SI  log IAP  log K(T, P)   Initial       Final       Delta

Anhydrite            Element not present.    0.000e+00           0   0.000e+00
Antarcticite         Element not present.    0.000e+00           0   0.000e+00
Aphthitalite         Element not present.    0.000e+00           0   0.000e+00
Aragonite            Element not present.    0.000e+00           0   0.000e+00
Arcanite             Element not present.    0.000e+00           0   0.000e+00
Bischofite       -9.05    -4.31      4.75    0.000e+00           0   0.000e+00
Bloedite         -7.42    -9.88     -2.46    0.000e+00           0   0.000e+00
Calcite              Element not present.    0.000e+00           0   0.000e+00
Carnallite           Element not present.    0.000e+00           0   0.000e+00
Dolomite             Element not present.    0.000e+00           0   0.000e+00
Epsomite         -2.89    -5.10     -2.22    0.000e+00           0   0.000e+00
Gypsum               Element not present.    0.000e+00           0   0.000e+00
Halite           -3.49    -1.99      1.49    0.000e+00           0   0.000e+00
Hexahydrite      -3.40    -5.10     -1.70    0.000e+00           0   0.000e+00
Hydrohalite      -3.25    -2.00      1.25    0.000e+00           0   0.000e+00
Hydromagnesite       Element not present.    0.000e+00           0   0.000e+00
Ice(s)            0.00    -0.00     -0.00    0.000e+00   3.666e+01   3.666e+01
Ikaite               Element not present.    0.000e+00           0   0.000e+00
Kalicinite           Element not present.    0.000e+00           0   0.000e+00
Kieserite        -5.66    -5.09      0.57    0.000e+00           0   0.000e+00
Landsfordite         Element not present.    0.000e+00           0   0.000e+00
Magnesite            Element not present.    0.000e+00           0   0.000e+00
Meridianite      -2.77    -5.11     -2.34    0.000e+00           0   0.000e+00
MgCl2:12H2O      -7.13    -4.32      2.82    0.000e+00           0   0.000e+00
MgCl2:8H2O       -8.15    -4.31      3.84    0.000e+00           0   0.000e+00
Mirabilite       -2.27    -4.81     -2.54    0.000e+00           0   0.000e+00
Na2CO3:7H2O          Element not present.    0.000e+00           0   0.000e+00
Nahcolite            Element not present.    0.000e+00           0   0.000e+00
Natron               Element not present.    0.000e+00           0   0.000e+00
Nesquehonite         Element not present.    0.000e+00           0   0.000e+00
Picromerite          Element not present.    0.000e+00           0   0.000e+00
Sylvite              Element not present.    0.000e+00           0   0.000e+00
Tachyhydrite         Element not present.    0.000e+00           0   0.000e+00
Thenardite       -4.48    -4.78     -0.31    0.000e+00           0   0.000e+00
Trona                Element not present.    0.000e+00           0   0.000e+00
Vaterite             Element not present.    0.000e+00           0   0.000e+00

-----------------------------Solution composition------------------------------

	Elements           Molality       Moles

	Cl                1.437e-01   4.878e-02
	Mg                1.437e-02   4.880e-03
	Na                1.293e-01   4.390e-02
	S                 7.186e-03   2.440e-03

----------------------------Description of solution----------------------------

                                       pH  =   7.798      Charge balance
                                       pe  =   4.000      Adjusted to redox equilibrium
      Specific Conductance (µS/cm,  -1°C)  = 7660
                          Density (g/cm³)  =   1.00709
                               Volume (L)  =   0.34021
                        Activity of water  =   0.995
                 Ionic strength (mol/kgw)  =   1.796e-01
                       Mass of water (kg)  =   3.395e-01
                 Total alkalinity (eq/kg)  =   1.249e-07
                         Temperature (°C)  =  -0.50
                  Electrical balance (eq)  =  -4.240e-08
 Percent error, 100*(Cat-|An|)/(Cat+|An|)  =  -0.00
                               Iterations  =   9 (1413 overall)
                         Gamma iterations  =   1
                      Osmotic coefficient  =   0.90429
                         Density of water  =   0.99980
                                  Total H  = 3.769372e+01
                                  Total O  = 1.885662e+01

----------------------------Distribution of species----------------------------

                                                    Unscaled  Unscaled
                                Unscaled       Log       Log       Log    mole V
   Species          Molality    Activity  Molality  Activity     Gamma    cm³/mol

   OH-             1.032e-07   6.863e-08    -6.986    -7.163    -0.177     -5.76
   H+              2.111e-08   1.592e-08    -7.676    -7.798    -0.123      0.00
   H2O             5.551e+01   9.952e-01     1.744    -0.002     0.000     18.02
Cl            1.437e-01
   Cl-             1.437e-01   1.074e-01    -0.843    -0.969    -0.126     16.69
Mg            1.437e-02
   Mg+2            1.437e-02   4.416e-03    -1.842    -2.355    -0.513    -20.07
   MgOH+           4.278e-08   3.757e-08    -7.369    -7.425    -0.056     (0)  
Na            1.293e-01
   Na+             1.293e-01   9.443e-02    -0.888    -1.025    -0.136     -2.96
S(6)          7.186e-03
   SO4-2           7.186e-03   1.841e-03    -2.143    -2.735    -0.591     10.52

------------------------------Saturation indices-------------------------------

  Phase               SI** log IAP   log K(272 K,   1 atm)

  Bischofite       -9.05     -4.31    4.75  MgCl2:6H2O
  Bloedite         -7.42     -9.88   -2.46  Na2Mg(SO4)2:4H2O
  Epsomite         -2.89     -5.10   -2.22  MgSO4:7H2O
  Halite           -3.49     -1.99    1.49  NaCl
  Hexahydrite      -3.40     -5.10   -1.70  MgSO4:6H2O
  Hydrohalite      -3.25     -2.00    1.25  NaCl:2H2O
  Ice(s)            0.00     -0.00   -0.00  H2O
  Kieserite        -5.66     -5.09    0.57  MgSO4:H2O
  Meridianite      -2.77     -5.11   -2.34  MgSO4:11H2O
  MgCl2:12H2O      -7.13     -4.32    2.82  MgCl2:12H2O
  MgCl2:8H2O       -8.15     -4.31    3.84  MgCl2:8H2O
  Mirabilite       -2.27     -4.81   -2.54  Na2SO4:10H2O
  Thenardite       -4.48     -4.78   -0.31  Na2SO4

**For a gas, SI = log10(fugacity). Fugacity = pressure * phi / 1 atm.
  For ideal gases, phi = 1.

Reaction step 7.

Using solution 1.	
Using pure phase assemblage 1.	
Using temperature 1.	

-------------------------------Phase assemblage--------------------------------

                                                      Moles in assemblage
Phase               SI  log IAP  log K(T, P)   Initial       Final       Delta

Anhydrite            Element not present.    0.000e+00           0   0.000e+00
Antarcticite         Element not present.    0.000e+00           0   0.000e+00
Aphthitalite         Element not present.    0.000e+00           0   0.000e+00
Aragonite            Element not present.    0.000e+00           0   0.000e+00
Arcanite             Element not present.    0.000e+00           0   0.000e+00
Bischofite       -8.85    -4.11      4.75    0.000e+00           0   0.000e+00
Bloedite         -7.14    -9.61     -2.46    0.000e+00           0   0.000e+00
Calcite              Element not present.    0.000e+00           0   0.000e+00
Carnallite           Element not present.    0.000e+00           0   0.000e+00
Dolomite             Element not present.    0.000e+00           0   0.000e+00
Epsomite         -2.80    -5.01     -2.22    0.000e+00           0   0.000e+00
Gypsum               Element not present.    0.000e+00           0   0.000e+00
Halite           -3.34    -1.85      1.49    0.000e+00           0   0.000e+00
Hexahydrite      -3.31    -5.01     -1.70    0.000e+00           0   0.000e+00
Hydrohalite      -3.10    -1.85      1.25    0.000e+00           0   0.000e+00
Hydromagnesite       Element not present.    0.000e+00           0   0.000e+00
Ice(s)            0.00    -0.00     -0.00    0.000e+00   3.987e+01   3.987e+01
Ikaite               Element not present.    0.000e+00           0   0.000e+00
Kalicinite           Element not present.    0.000e+00           0   0.000e+00
Kieserite        -5.57    -5.00      0.57    0.000e+00           0   0.000e+00
Landsfordite         Element not present.    0.000e+00           0   0.000e+00
Magnesite            Element not present.    0.000e+00           0   0.000e+00
Meridianite      -2.68    -5.02     -2.35    0.000e+00           0   0.000e+00
MgCl2:12H2O      -6.93    -4.12      2.81    0.000e+00           0   0.000e+00
MgCl2:8H2O       -7.95    -4.11      3.84    0.000e+00           0   0.000e+00
Mirabilite       -2.08    -4.63     -2.54    0.000e+00           0   0.000e+00
Na2CO3:7H2O          Element not present.    0.000e+00           0   0.000e+00
Nahcolite            Element not present.    0.000e+00           0   0.000e+00
Natron               Element not present.    0.000e+00           0   0.000e+00
Nesquehonite         Element not present.    0.000e+00           0   0.000e+00
Picromerite          Element not present.    0.000e+00           0   0.000e+00
Sylvite              Element not present.    0.000e+00           0   0.000e+00
Tachyhydrite         Element not present.    0.000e+00           0   0.000e+00
Thenardite       -4.29    -4.60     -0.31    0.000e+00           0   0.000e+00
Trona                Element not present.    0.000e+00           0   0.000e+00
Vaterite             Element not present.    0.000e+00           0   0.000e+00

-----------------------------Solution composition------------------------------

	Elements           Molality       Moles

	Cl                1.731e-01   4.878e-02
	Mg                1.732e-02   4.880e-03
	Na                1.558e-01   4.390e-02
	S                 8.659e-03   2.440e-03

----------------------------Description of solution----------------------------

                                       pH  =   7.842      Charge balance
                                       pe  =   4.000      Adjusted to redox equilibrium
      Specific Conductance (µS/cm,  -1°C)  = 9031
                          Density (g/cm³)  =   1.00856
                               Volume (L)  =   0.28245
                        Activity of water  =   0.994
                 Ionic strength (mol/kgw)  =   2.164e-01
                       Mass of water (kg)  =   2.818e-01
                 Total alkalinity (eq/kg)  =   1.505e-07
                         Temperature (°C)  =  -0.60
                  Electrical balance (eq)  =  -4.240e-08
 Percent error, 100*(Cat-|An|)/(Cat+|An|)  =  -0.00
                               Iterations  =  10 (1414 overall)
                         Gamma iterations  =   1
                      Osmotic coefficient  =   0.90107
                         Density of water  =   0.99980
                                  Total H  = 3.128227e+01
                                  Total O  = 1.565089e+01

----------------------------Distribution of species----------------------------

                                                    Unscaled  Unscaled
                                Unscaled       Log       Log       Log    mole V
   Species          Molality    Activity  Molality  Activity     Gamma    cm³/mol

   OH-             1.171e-07   7.500e-08    -6.931    -7.125    -0.194     -5.70
   H+              1.931e-08   1.440e-08    -7.714    -7.842    -0.127      0.00
   H2O             5.551e+01   9.943e-01     1.744    -0.003     0.000     18.02
Cl            1.731e-01
   Cl-             1.731e-01   1.274e-01    -0.762    -0.895    -0.133     16.72
Mg            1.732e-02
   Mg+2            1.732e-02   4.999e-03    -1.761    -2.301    -0.540    -20.02
   MgOH+           5.265e-08   4.647e-08    -7.279    -7.333    -0.054     (0)  
Na            1.558e-01
   Na+             1.558e-01   1.116e-01    -0.807    -0.952    -0.145     -2.90
S(6)          8.659e-03
   SO4-2           8.659e-03   2.014e-03    -2.063    -2.696    -0.634     10.72

------------------------------Saturation indices-------------------------------

  Phase               SI** log IAP   log K(272 K,   1 atm)

  Bischofite       -8.85     -4.11    4.75  MgCl2:6H2O
  Bloedite         -7.14     -9.61   -2.46  Na2Mg(SO4)2:4H2O
  Epsomite         -2.80     -5.01   -2.22  MgSO4:7H2O
  Halite           -3.34     -1.85    1.49  NaCl
  Hexahydrite      -3.31     -5.01   -1.70  MgSO4:6H2O
  Hydrohalite      -3.10     -1.85    1.25  NaCl:2H2O
  Ice(s)            0.00     -0.00   -0.00  H2O
  Kieserite        -5.57     -5.00    0.57  MgSO4:H2O
  Meridianite      -2.68     -5.02   -2.35  MgSO4:11H2O
  MgCl2:12H2O      -6.93     -4.12    2.81  MgCl2:12H2O
  MgCl2:8H2O       -7.95     -4.11    3.84  MgCl2:8H2O
  Mirabilite       -2.08     -4.63   -2.54  Na2SO4:10H2O
  Thenardite       -4.29     -4.60   -0.31  Na2SO4

**For a gas, SI = log10(fugacity). Fugacity = pressure * phi / 1 atm.
  For ideal gases, phi = 1.

Reaction step 8.

Using solution 1.	
Using pure phase assemblage 1.	
Using temperature 1.	

-------------------------------Phase assemblage--------------------------------

                                                      Moles in assemblage
Phase               SI  log IAP  log K(T, P)   Initial       Final       Delta

Anhydrite            Element not present.    0.000e+00           0   0.000e+00
Antarcticite         Element not present.    0.000e+00           0   0.000e+00
Aphthitalite         Element not present.    0.000e+00           0   0.000e+00
Aragonite            Element not present.    0.000e+00           0   0.000e+00
Arcanite             Element not present.    0.000e+00           0   0.000e+00
Bischofite       -8.69    -3.94      4.75    0.000e+00           0   0.000e+00
Bloedite         -6.92    -9.38     -2.46    0.000e+00           0   0.000e+00
Calcite              Element not present.    0.000e+00           0   0.000e+00
Carnallite           Element not present.    0.000e+00           0   0.000e+00
Dolomite             Element not present.    0.000e+00           0   0.000e+00
Epsomite         -2.72    -4.94     -2.22    0.000e+00           0   0.000e+00
Gypsum               Element not present.    0.000e+00           0   0.000e+00
Halite           -3.22    -1.72      1.49    0.000e+00           0   0.000e+00
Hexahydrite      -3.24    -4.94     -1.70    0.000e+00           0   0.000e+00
Hydrohalite      -2.97    -1.73      1.24    0.000e+00           0   0.000e+00
Hydromagnesite       Element not present.    0.000e+00           0   0.000e+00
Ice(s)            0.00    -0.00     -0.00    0.000e+00   4.214e+01   4.214e+01
Ikaite               Element not present.    0.000e+00           0   0.000e+00
Kalicinite           Element not present.    0.000e+00           0   0.000e+00
Kieserite        -5.50    -4.92      0.58    0.000e+00           0   0.000e+00
Landsfordite         Element not present.    0.000e+00           0   0.000e+00
Magnesite            Element not present.    0.000e+00           0   0.000e+00
Meridianite      -2.60    -4.95     -2.35    0.000e+00           0   0.000e+00
MgCl2:12H2O      -6.76    -3.95      2.80    0.000e+00           0   0.000e+00
MgCl2:8H2O       -7.78    -3.94      3.84    0.000e+00           0   0.000e+00
Mirabilite       -1.93    -4.48     -2.55    0.000e+00           0   0.000e+00
Na2CO3:7H2O          Element not present.    0.000e+00           0   0.000e+00
Nahcolite            Element not present.    0.000e+00           0   0.000e+00
Natron               Element not present.    0.000e+00           0   0.000e+00
Nesquehonite         Element not present.    0.000e+00           0   0.000e+00
Picromerite          Element not present.    0.000e+00           0   0.000e+00
Sylvite              Element not present.    0.000e+00           0   0.000e+00
Tachyhydrite         Element not present.    0.000e+00           0   0.000e+00
Thenardite       -4.14    -4.45     -0.31    0.000e+00           0   0.000e+00
Trona                Element not present.    0.000e+00           0   0.000e+00
Vaterite             Element not present.    0.000e+00           0   0.000e+00

-----------------------------Solution composition------------------------------

	Elements           Molality       Moles

	Cl                2.026e-01   4.878e-02
	Mg                2.027e-02   4.880e-03
	Na                1.823e-01   4.390e-02
	S                 1.013e-02   2.440e-03

----------------------------Description of solution----------------------------

                                       pH  =   7.880      Charge balance
                                       pe  =   4.000      Adjusted to redox equilibrium
      Specific Conductance (µS/cm,  -1°C)  = 10360
                          Density (g/cm³)  =   1.01002
                               Volume (L)  =   0.24143
                        Activity of water  =   0.993
                 Ionic strength (mol/kgw)  =   2.533e-01
                       Mass of water (kg)  =   2.408e-01
                 Total alkalinity (eq/kg)  =   1.761e-07
                         Temperature (°C)  =  -0.70
                  Electrical balance (eq)  =  -4.240e-08
 Percent error, 100*(Cat-|An|)/(Cat+|An|)  =  -0.00
                               Iterations  =  11 (1415 overall)
                         Gamma iterations  =   1
                      Osmotic coefficient  =   0.89861
                         Density of water  =   0.99979
                                  Total H  = 2.672913e+01
                                  Total O  = 1.337433e+01

----------------------------Distribution of species----------------------------

                                                    Unscaled  Unscaled
                                Unscaled       Log       Log       Log    mole V
   Species          Molality    Activity  Molality  Activity     Gamma    cm³/mol

   OH-             1.311e-07   8.104e-08    -6.882    -7.091    -0.209     -5.65
   H+              1.783e-08   1.318e-08    -7.749    -7.880    -0.131      0.00
   H2O             5.551e+01   9.933e-01     1.744    -0.003     0.000     18.02
Cl            2.026e-01
   Cl-             2.026e-01   1.472e-01    -0.693    -0.832    -0.139     16.74
Mg            2.027e-02
   Mg+2            2.027e-02   5.554e-03    -1.693    -2.255    -0.562    -19.97
   MgOH+           6.286e-08   5.576e-08    -7.202    -7.254    -0.052     (0)  
Na            1.823e-01
   Na+             1.823e-01   1.285e-01    -0.739    -0.891    -0.152     -2.85
S(6)          1.013e-02
   SO4-2           1.013e-02   2.163e-03    -1.994    -2.665    -0.671     10.90

------------------------------Saturation indices-------------------------------

  Phase               SI** log IAP   log K(272 K,   1 atm)

  Bischofite       -8.69     -3.94    4.75  MgCl2:6H2O
  Bloedite         -6.92     -9.38   -2.46  Na2Mg(SO4)2:4H2O
  Epsomite         -2.72     -4.94   -2.22  MgSO4:7H2O
  Halite           -3.22     -1.72    1.49  NaCl
  Hexahydrite      -3.24     -4.94   -1.70  MgSO4:6H2O
  Hydrohalite      -2.97     -1.73    1.24  NaCl:2H2O
  Ice(s)            0.00     -0.00   -0.00  H2O
  Kieserite        -5.50     -4.92    0.58  MgSO4:H2O
  Meridianite      -2.60     -4.95   -2.35  MgSO4:11H2O
  MgCl2:12H2O      -6.76     -3.95    2.80  MgCl2:12H2O
  MgCl2:8H2O       -7.78     -3.94    3.84  MgCl2:8H2O
  Mirabilite       -1.93     -4.48   -2.55  Na2SO4:10H2O
  Thenardite       -4.14     -4.45   -0.31  Na2SO4

**For a gas, SI = log10(fugacity). Fugacity = pressure * phi / 1 atm.
  For ideal gases, phi = 1.

Reaction step 9.

Using solution 1.	
Using pure phase assemblage 1.	
Using temperature 1.	

-------------------------------Phase assemblage--------------------------------

                                                      Moles in assemblage
Phase               SI  log IAP  log K(T, P)   Initial       Final       Delta

Anhydrite            Element not present.    0.000e+00           0   0.000e+00
Antarcticite         Element not present.    0.000e+00           0   0.000e+00
Aphthitalite         Element not present.    0.000e+00           0   0.000e+00
Aragonite            Element not present.    0.000e+00           0   0.000e+00
Arcanite             Element not present.    0.000e+00           0   0.000e+00
Bischofite       -8.54    -3.79      4.75    0.000e+00           0   0.000e+00
Bloedite         -6.72    -9.18     -2.46    0.000e+00           0   0.000e+00
Calcite              Element not present.    0.000e+00           0   0.000e+00
Carnallite           Element not present.    0.000e+00           0   0.000e+00
Dolomite             Element not present.    0.000e+00           0   0.000e+00
Epsomite         -2.66    -4.88     -2.22    0.000e+00           0   0.000e+00
Gypsum               Element not present.    0.000e+00           0   0.000e+00
Halite           -3.11    -1.62      1.49    0.000e+00           0   0.000e+00
Hexahydrite      -3.17    -4.88     -1.70    0.000e+00           0   0.000e+00
Hydrohalite      -2.87    -1.62      1.24    0.000e+00           0   0.000e+00
Hydromagnesite       Element not present.    0.000e+00           0   0.000e+00
Ice(s)            0.00    -0.00     -0.00    0.000e+00   4.384e+01   4.384e+01
Ikaite               Element not present.    0.000e+00           0   0.000e+00
Kalicinite           Element not present.    0.000e+00           0   0.000e+00
Kieserite        -5.44    -4.86      0.58    0.000e+00           0   0.000e+00
Landsfordite         Element not present.    0.000e+00           0   0.000e+00
Magnesite            Element not present.    0.000e+00           0   0.000e+00
Meridianite      -2.54    -4.89     -2.36    0.000e+00           0   0.000e+00
MgCl2:12H2O      -6.61    -3.81      2.80    0.000e+00           0   0.000e+00
MgCl2:8H2O       -7.64    -3.80      3.84    0.000e+00           0   0.000e+00
Mirabilite       -1.80    -4.35     -2.55    0.000e+00           0   0.000e+00
Na2CO3:7H2O          Element not present.    0.000e+00           0   0.000e+00
Nahcolite            Element not present.    0.000e+00           0   0.000e+00
Natron               Element not present.    0.000e+00           0   0.000e+00
Nesquehonite         Element not present.    0.000e+00           0   0.000e+00
Picromerite          Element not present.    0.000e+00           0   0.000e+00
Sylvite              Element not present.    0.000e+00           0   0.000e+00
Tachyhydrite         Element not present.    0.000e+00           0   0.000e+00
Thenardite       -4.01    -4.32     -0.31    0.000e+00           0   0.000e+00
Trona                Element not present.    0.000e+00           0   0.000e+00
Vaterite             Element not present.    0.000e+00           0   0.000e+00

-----------------------------Solution composition------------------------------

	Elements           Molality       Moles

	Cl                2.321e-01   4.878e-02
	Mg                2.322e-02   4.880e-03
	Na                2.089e-01   4.390e-02
	S                 1.161e-02   2.440e-03

----------------------------Description of solution----------------------------

                                       pH  =   7.914      Charge balance
                                       pe  =   4.000      Adjusted to redox equilibrium
      Specific Conductance (µS/cm,  -1°C)  = 11649
                          Density (g/cm³)  =   1.01149
                               Volume (L)  =   0.21082
                        Activity of water  =   0.992
                 Ionic strength (mol/kgw)  =   2.902e-01
                       Mass of water (kg)  =   2.102e-01
                 Total alkalinity (eq/kg)  =   2.018e-07
                         Temperature (°C)  =  -0.80
                  Electrical balance (eq)  =  -4.240e-08
 Percent error, 100*(Cat-|An|)/(Cat+|An|)  =  -0.00
                               Iterations  =  12 (1416 overall)
                         Gamma iterations  =   1
                      Osmotic coefficient  =   0.89672
                         Density of water  =   0.99978
                                  Total H  = 2.333087e+01
                                  Total O  = 1.167519e+01

----------------------------Distribution of species----------------------------

                                                    Unscaled  Unscaled
                                Unscaled       Log       Log       Log    mole V
   Species          Molality    Activity  Molality  Activity     Gamma    cm³/mol

   OH-             1.450e-07   8.673e-08    -6.839    -7.062    -0.223     -5.60
   H+              1.657e-08   1.218e-08    -7.781    -7.914    -0.134      0.00
   H2O             5.551e+01   9.923e-01     1.744    -0.003     0.000     18.02
Cl            2.321e-01
   Cl-             2.321e-01   1.668e-01    -0.634    -0.778    -0.144     16.75
Mg            2.322e-02
   Mg+2            2.322e-02   6.088e-03    -1.634    -2.216    -0.581    -19.93
   MgOH+           7.334e-08   6.539e-08    -7.135    -7.185    -0.050     (0)  
Na            2.089e-01
   Na+             2.089e-01   1.451e-01    -0.680    -0.838    -0.158     -2.80
S(6)          1.161e-02
   SO4-2           1.161e-02   2.293e-03    -1.935    -2.640    -0.704     11.07

------------------------------Saturation indices-------------------------------

  Phase               SI** log IAP   log K(272 K,   1 atm)

  Bischofite       -8.54     -3.79    4.75  MgCl2:6H2O
  Bloedite         -6.72     -9.18   -2.46  Na2Mg(SO4)2:4H2O
  Epsomite         -2.66     -4.88   -2.22  MgSO4:7H2O
  Halite           -3.11     -1.62    1.49  NaCl
  Hexahydrite      -3.17     -4.88   -1.70  MgSO4:6H2O
  Hydrohalite      -2.87     -1.62    1.24  NaCl:2H2O
  Ice(s)            0.00     -0.00   -0.00  H2O
  Kieserite        -5.44     -4.86    0.58  MgSO4:H2O
  Meridianite      -2.54     -4.89   -2.36  MgSO4:11H2O
  MgCl2:12H2O      -6.61     -3.81    2.80  MgCl2:12H2O
  MgCl2:8H2O       -7.64     -3.80    3.84  MgCl2:8H2O
  Mirabilite       -1.80     -4.35   -2.55  Na2SO4:10H2O
  Thenardite       -4.01     -4.32   -0.31  Na2SO4

**For a gas, SI = log10(fugacity). Fugacity = pressure * phi / 1 atm.
  For ideal gases, phi = 1.

Reaction step 10.

Using solution 1.	
Using pure phase assemblage 1.	
Using temperature 1.	

-------------------------------Phase assemblage--------------------------------

                                                      Moles in assemblage
Phase               SI  log IAP  log K(T, P)   Initial       Final       Delta

Anhydrite            Element not present.    0.000e+00           0   0.000e+00
Antarcticite         Element not present.    0.000e+00           0   0.000e+00
Aphthitalite         Element not present.    0.000e+00           0   0.000e+00
Aragonite            Element not present.    0.000e+00           0   0.000e+00
Arcanite             Element not present.    0.000e+00           0   0.000e+00
Bischofite       -8.41    -3.66      4.75    0.000e+00           0   0.000e+00
Bloedite         -6.55    -9.02     -2.46    0.000e+00           0   0.000e+00
Calcite              Element not present.    0.000e+00           0   0.000e+00
Carnallite           Element not present.    0.000e+00           0   0.000e+00
Dolomite             Element not present.    0.000e+00           0   0.000e+00
Epsomite         -2.60    -4.82     -2.22    0.000e+00           0   0.000e+00
Gypsum               Element not present.    0.000e+00           0   0.000e+00
Halite           -3.01    -1.52      1.49    0.000e+00           0   0.000e+00
Hexahydrite      -3.12    -4.82     -1.70    0.000e+00           0   0.000e+00
Hydrohalite      -2.77    -1.53      1.24    0.000e+00           0   0.000e+00
Hydromagnesite       Element not present.    0.000e+00           0   0.000e+00
Ice(s)            0.00    -0.00     -0.00    0.000e+00   4.516e+01   4.516e+01
Ikaite               Element not present.    0.000e+00           0   0.000e+00
Kalicinite           Element not present.    0.000e+00           0   0.000e+00
Kieserite        -5.39    -4.80      0.59    0.000e+00           0   0.000e+00
Landsfordite         Element not present.    0.000e+00           0   0.000e+00
Magnesite            Element not present.    0.000e+00           0   0.000e+00
Meridianite      -2.48    -4.84     -2.36    0.000e+00           0   0.000e+00
MgCl2:12H2O      -6.48    -3.69      2.79    0.000e+00           0   0.000e+00
MgCl2:8H2O       -7.51    -3.67      3.84    0.000e+00           0   0.000e+00
Mirabilite       -1.68    -4.24     -2.56    0.000e+00           0   0.000e+00
Na2CO3:7H2O          Element not present.    0.000e+00           0   0.000e+00
Nahcolite            Element not present.    0.000e+00           0   0.000e+00
Natron               Element not present.    0.000e+00           0   0.000e+00
Nesquehonite         Element not present.    0.000e+00           0   0.000e+00
Picromerite          Element not present.    0.000e+00           0   0.000e+00
Sylvite              Element not present.    0.000e+00           0   0.000e+00
Tachyhydrite         Element not present.    0.000e+00           0   0.000e+00
Thenardite       -3.89    -4.20     -0.31    0.000e+00           0   0.000e+00
[...]
Aphthitalite         Element not present.    0.000e+00           0   0.000e+00
Aragonite            Element not present.    0.000e+00           0   0.000e+00
Arcanite             Element not present.    0.000e+00           0   0.000e+00
Bischofite       -2.45     2.08      4.53    0.000e+00           0   0.000e+00
Bloedite         -3.35    -5.94     -2.59    0.000e+00           0   0.000e+00
Calcite              Element not present.    0.000e+00           0   0.000e+00
Carnallite           Element not present.    0.000e+00           0   0.000e+00
Dolomite             Element not present.    0.000e+00           0   0.000e+00
Epsomite         -0.37    -3.17     -2.80    0.000e+00           0   0.000e+00
Gypsum               Element not present.    0.000e+00           0   0.000e+00
Halite           -0.28     0.94      1.21    0.000e+00           0   0.000e+00
Hexahydrite      -1.21    -3.02     -1.81    0.000e+00           0   0.000e+00
Hydrohalite       0.00     0.64      0.64    0.000e+00   4.390e-02   4.390e-02
Hydromagnesite       Element not present.    0.000e+00           0   0.000e+00
Ice(s)            0.00    -0.15     -0.15    0.000e+00   5.537e+01   5.537e+01
Ikaite               Element not present.    0.000e+00           0   0.000e+00
Kalicinite           Element not present.    0.000e+00           0   0.000e+00
Kieserite        -5.16    -2.27      2.89    0.000e+00           0   0.000e+00
Landsfordite         Element not present.    0.000e+00           0   0.000e+00
Magnesite            Element not present.    0.000e+00           0   0.000e+00
Meridianite       0.00    -3.77     -3.77    0.000e+00   2.440e-03   2.440e-03
MgCl2:12H2O       0.00     1.18      1.18    0.000e+00   2.440e-03   2.440e-03
MgCl2:8H2O       -1.17     1.78      2.95    0.000e+00           0   0.000e+00
Mirabilite       -0.28    -4.73     -4.45    0.000e+00           0   0.000e+00
Na2CO3:7H2O          Element not present.    0.000e+00           0   0.000e+00
Nahcolite            Element not present.    0.000e+00           0   0.000e+00
Natron               Element not present.    0.000e+00           0   0.000e+00
Nesquehonite         Element not present.    0.000e+00           0   0.000e+00
Picromerite          Element not present.    0.000e+00           0   0.000e+00
Sylvite              Element not present.    0.000e+00           0   0.000e+00
Tachyhydrite         Element not present.    0.000e+00           0   0.000e+00
Thenardite       -2.89    -3.22     -0.34    0.000e+00           0   0.000e+00
Trona                Element not present.    0.000e+00           0   0.000e+00
Vaterite             Element not present.    0.000e+00           0   0.000e+00

-----------------------------Solution composition------------------------------

	Elements           Molality       Moles

	Cl                6.479e+00   5.926e-07
	Mg                2.677e+00   2.448e-07
	Na                1.220e+00   1.115e-07
	S                 4.669e-02   4.270e-09

----------------------------Description of solution----------------------------

                                       pH  =  13.421      Charge balance
                                       pe  =   4.000      Adjusted to redox equilibrium
      Specific Conductance (µS/cm, -36°C)  = 10214
                          Density (g/cm³)  =   1.31727
                               Volume (L)  =   0.00000
                        Activity of water  =   0.707
                 Ionic strength (mol/kgw)  =   8.610e+00
                       Mass of water (kg)  =   9.145e-08
                 Total alkalinity (eq/kg)  =   4.636e-01
                         Temperature (°C)  = -35.60
                  Electrical balance (eq)  =  -4.240e-08
 Percent error, 100*(Cat-|An|)/(Cat+|An|)  =  -3.65
                               Iterations  = 104 (1508 overall)
                         Gamma iterations  =   1
                      Osmotic coefficient  =   1.84263
                         Density of water  =   0.97589
                                  Total H  = 1.019533e-05
                                  Total O  = 5.135946e-06

----------------------------Distribution of species----------------------------

                                                    Unscaled  Unscaled
                                Unscaled       Log       Log       Log    mole V
   Species          Molality    Activity  Molality  Activity     Gamma    cm³/mol

   OH-             4.680e-03   2.702e-04    -2.330    -3.568    -1.239    -22.78
   H+              4.694e-15   3.796e-14   -14.328   -13.421     0.908      0.00
   H2O             5.551e+01   7.074e-01     1.744    -0.150     0.000     18.46
Cl            6.479e+00
   Cl-             6.479e+00   1.430e+01     0.812     1.155     0.344     10.67
Mg            2.677e+00
   Mg+2            2.218e+00   4.677e+00     0.346     0.670     0.324    -32.02
   MgOH+           4.589e-01   1.770e-01    -0.338    -0.752    -0.414     (0)  
Na            1.220e+00
   Na+             1.220e+00   6.040e-01     0.086    -0.219    -0.305     -5.86
S(6)          4.669e-02
   SO4-2           4.669e-02   1.636e-03    -1.331    -2.786    -1.455    -42.39

------------------------------Saturation indices-------------------------------

  Phase               SI** log IAP   log K(237 K,   1 atm)

  Bischofite       -2.45      2.08    4.53  MgCl2:6H2O
  Bloedite         -3.35     -5.94   -2.59  Na2Mg(SO4)2:4H2O
  Epsomite         -0.37     -3.17   -2.80  MgSO4:7H2O
  Halite           -0.28      0.94    1.21  NaCl
  Hexahydrite      -1.21     -3.02   -1.81  MgSO4:6H2O
  Hydrohalite       0.00      0.64    0.64  NaCl:2H2O
  Ice(s)            0.00     -0.15   -0.15  H2O
  Kieserite        -5.16     -2.27    2.89  MgSO4:H2O
  Meridianite       0.00     -3.77   -3.77  MgSO4:11H2O
  MgCl2:12H2O       0.00      1.18    1.18  MgCl2:12H2O
  MgCl2:8H2O       -1.17      1.78    2.95  MgCl2:8H2O
  Mirabilite       -0.28     -4.73   -4.45  Na2SO4:10H2O
  Thenardite       -2.89     -3.22   -0.34  Na2SO4

**For a gas, SI = log10(fugacity). Fugacity = pressure * phi / 1 atm.
  For ideal gases, phi = 1.

Reaction step 358.

Using solution 1.	
Using pure phase assemblage 1.	
Using temperature 1.	

-------------------------------Phase assemblage--------------------------------

                                                      Moles in assemblage
Phase               SI  log IAP  log K(T, P)   Initial       Final       Delta

Anhydrite            Element not present.    0.000e+00           0   0.000e+00
Antarcticite         Element not present.    0.000e+00           0   0.000e+00
Aphthitalite         Element not present.    0.000e+00           0   0.000e+00
Aragonite            Element not present.    0.000e+00           0   0.000e+00
Arcanite             Element not present.    0.000e+00           0   0.000e+00
Bischofite       -2.46     2.08      4.53    0.000e+00           0   0.000e+00
Bloedite         -3.36    -5.94     -2.59    0.000e+00           0   0.000e+00
Calcite              Element not present.    0.000e+00           0   0.000e+00
Carnallite           Element not present.    0.000e+00           0   0.000e+00
Dolomite             Element not present.    0.000e+00           0   0.000e+00
Epsomite         -0.37    -3.17     -2.80    0.000e+00           0   0.000e+00
Gypsum               Element not present.    0.000e+00           0   0.000e+00
Halite           -0.28     0.94      1.21    0.000e+00           0   0.000e+00
Hexahydrite      -1.21    -3.02     -1.81    0.000e+00           0   0.000e+00
Hydrohalite       0.00     0.63      0.63    0.000e+00   4.390e-02   4.390e-02
Hydromagnesite       Element not present.    0.000e+00           0   0.000e+00
Ice(s)            0.00    -0.15     -0.15    0.000e+00   5.537e+01   5.537e+01
Ikaite               Element not present.    0.000e+00           0   0.000e+00
Kalicinite           Element not present.    0.000e+00           0   0.000e+00
Kieserite        -5.16    -2.27      2.90    0.000e+00           0   0.000e+00
Landsfordite         Element not present.    0.000e+00           0   0.000e+00
Magnesite            Element not present.    0.000e+00           0   0.000e+00
Meridianite       0.00    -3.77     -3.77    0.000e+00   2.440e-03   2.440e-03
MgCl2:12H2O       0.00     1.17      1.17    0.000e+00   2.440e-03   2.440e-03
MgCl2:8H2O       -1.17     1.77      2.94    0.000e+00           0   0.000e+00
Mirabilite       -0.28    -4.73     -4.45    0.000e+00           0   0.000e+00
Na2CO3:7H2O          Element not present.    0.000e+00           0   0.000e+00
Nahcolite            Element not present.    0.000e+00           0   0.000e+00
Natron               Element not present.    0.000e+00           0   0.000e+00
Nesquehonite         Element not present.    0.000e+00           0   0.000e+00
Picromerite          Element not present.    0.000e+00           0   0.000e+00
Sylvite              Element not present.    0.000e+00           0   0.000e+00
Tachyhydrite         Element not present.    0.000e+00           0   0.000e+00
Thenardite       -2.89    -3.23     -0.34    0.000e+00           0   0.000e+00
Trona                Element not present.    0.000e+00           0   0.000e+00
Vaterite             Element not present.    0.000e+00           0   0.000e+00

-----------------------------Solution composition------------------------------

	Elements           Molality       Moles

	Cl                6.561e+00   5.185e-07
	Mg                2.708e+00   2.140e-07
	Na                1.240e+00   9.798e-08
	S                 4.694e-02   3.710e-09

----------------------------Description of solution----------------------------

                                       pH  =  13.472      Charge balance
                                       pe  =   4.000      Adjusted to redox equilibrium
      Specific Conductance (µS/cm, -36°C)  = 10200
                          Density (g/cm³)  =   1.32141
                               Volume (L)  =   0.00000
                        Activity of water  =   0.707
                 Ionic strength (mol/kgw)  =   8.616e+00
                       Mass of water (kg)  =   7.902e-08
                 Total alkalinity (eq/kg)  =   5.365e-01
                         Temperature (°C)  = -35.70
                  Electrical balance (eq)  =  -4.240e-08
 Percent error, 100*(Cat-|An|)/(Cat+|An|)  =  -4.20
                               Iterations  = 105 (1509 overall)
                         Gamma iterations  =   1
                      Osmotic coefficient  =   1.82423
                         Density of water  =   0.97571
                                  Total H  = 8.815481e-06
                                  Total O  = 4.443779e-06

----------------------------Distribution of species----------------------------

                                                    Unscaled  Unscaled
                                Unscaled       Log       Log       Log    mole V
   Species          Molality    Activity  Molality  Activity     Gamma    cm³/mol

   OH-             5.363e-03   2.994e-04    -2.271    -3.524    -1.253    -23.15
   H+              4.042e-15   3.371e-14   -14.393   -13.472     0.921      0.00
   H2O             5.551e+01   7.067e-01     1.744    -0.151     0.000     18.46
Cl            6.561e+00
   Cl-             6.561e+00   1.402e+01     0.817     1.147     0.330     10.57
Mg            2.708e+00
   Mg+2            2.177e+00   4.860e+00     0.338     0.687     0.349    -32.26
   MgOH+           5.312e-01   2.040e-01    -0.275    -0.690    -0.416     (0)  
Na            1.240e+00
   Na+             1.240e+00   6.146e-01     0.093    -0.211    -0.305     -5.94
S(6)          4.694e-02
   SO4-2           4.694e-02   1.577e-03    -1.328    -2.802    -1.474    -43.32

------------------------------Saturation indices-------------------------------

  Phase               SI** log IAP   log K(237 K,   1 atm)

  Bischofite       -2.46      2.08    4.53  MgCl2:6H2O
  Bloedite         -3.36     -5.94   -2.59  Na2Mg(SO4)2:4H2O
  Epsomite         -0.37     -3.17   -2.80  MgSO4:7H2O
  Halite           -0.28      0.94    1.21  NaCl
  Hexahydrite      -1.21     -3.02   -1.81  MgSO4:6H2O
  Hydrohalite       0.00      0.63    0.63  NaCl:2H2O
  Ice(s)            0.00     -0.15   -0.15  H2O
  Kieserite        -5.16     -2.27    2.90  MgSO4:H2O
  Meridianite       0.00     -3.77   -3.77  MgSO4:11H2O
  MgCl2:12H2O       0.00      1.17    1.17  MgCl2:12H2O
  MgCl2:8H2O       -1.17      1.77    2.94  MgCl2:8H2O
  Mirabilite       -0.28     -4.73   -4.45  Na2SO4:10H2O
  Thenardite       -2.89     -3.23   -0.34  Na2SO4

**For a gas, SI = log10(fugacity). Fugacity = pressure * phi / 1 atm.
  For ideal gases, phi = 1.

Reaction step 359.

ERROR:               Ice(s) Pure phase has not converged. 	Residual: -3.463721e-01

Using solution 1.	
Using pure phase assemblage 1.	
Using temperature 1.	

-------------------------------Phase assemblage--------------------------------

                                                      Moles in assemblage
Phase               SI  log IAP  log K(T, P)   Initial       Final       Delta

Anhydrite            Element not present.    0.000e+00           0   0.000e+00
Antarcticite         Element not present.    0.000e+00           0   0.000e+00
Aphthitalite         Element not present.    0.000e+00           0   0.000e+00
Aragonite            Element not present.    0.000e+00           0   0.000e+00
Arcanite             Element not present.    0.000e+00           0   0.000e+00
Bischofite       -9.47    -4.94      4.53    0.000e+00           0   0.000e+00
Bloedite         -7.67   -10.25     -2.59    0.000e+00           0   0.000e+00
Calcite              Element not present.    0.000e+00           0   0.000e+00
Carnallite           Element not present.    0.000e+00           0   0.000e+00
Dolomite             Element not present.    0.000e+00           0   0.000e+00
Epsomite         -2.13    -4.93     -2.80    0.000e+00           0   0.000e+00
Gypsum               Element not present.    0.000e+00           0   0.000e+00
Halite           -3.88    -2.67      1.21    0.000e+00           0   0.000e+00
Hexahydrite      -3.12    -4.93     -1.81    0.000e+00           0   0.000e+00
Hydrohalite      -3.30    -2.67      0.63    0.000e+00           0   0.000e+00
Hydromagnesite       Element not present.    0.000e+00           0   0.000e+00
Ice(s)            0.15    -0.00     -0.15    0.000e+00           0   0.000e+00
Ikaite               Element not present.    0.000e+00           0   0.000e+00
Kalicinite           Element not present.    0.000e+00           0   0.000e+00
Kieserite        -7.83    -4.92      2.91    0.000e+00           0   0.000e+00
Landsfordite         Element not present.    0.000e+00           0   0.000e+00
Magnesite            Element not present.    0.000e+00           0   0.000e+00
Meridianite      -1.15    -4.93     -3.78    0.000e+00           0   0.000e+00
MgCl2:12H2O      -6.11    -4.94      1.17    0.000e+00           0   0.000e+00
MgCl2:8H2O       -7.88    -4.94      2.94    0.000e+00           0   0.000e+00
Mirabilite       -0.88    -5.33     -4.46    0.000e+00           0   0.000e+00
Na2CO3:7H2O          Element not present.    0.000e+00           0   0.000e+00
Nahcolite            Element not present.    0.000e+00           0   0.000e+00
Natron               Element not present.    0.000e+00           0   0.000e+00
Nesquehonite         Element not present.    0.000e+00           0   0.000e+00
Picromerite          Element not present.    0.000e+00           0   0.000e+00
Sylvite              Element not present.    0.000e+00           0   0.000e+00
Tachyhydrite         Element not present.    0.000e+00           0   0.000e+00
Thenardite       -4.99    -5.33     -0.34    0.000e+00           0   0.000e+00
Trona                Element not present.    0.000e+00           0   0.000e+00
Vaterite             Element not present.    0.000e+00           0   0.000e+00

-----------------------------Solution composition------------------------------

	Elements           Molality       Moles

	Cl                4.878e-02   4.878e-02
	Mg                4.880e-03   4.880e-03
	Na                4.390e-02   4.390e-02
	S                 2.440e-03   2.440e-03

----------------------------Description of solution----------------------------

                                       pH  =   9.259      Charge balance
                                       pe  =   4.000      Adjusted to redox equilibrium
      Specific Conductance (µS/cm, -36°C)  = 335
                          Density (g/cm³)  =   0.98012
                               Volume (L)  =   1.02344
                        Activity of water  =   0.998
                 Ionic strength (mol/kgw)  =   6.098e-02
                       Mass of water (kg)  =   1.000e+00
                 Total alkalinity (eq/kg)  =   4.240e-08
                         Temperature (°C)  = -35.80
                  Electrical balance (eq)  =  -4.240e-08
 Percent error, 100*(Cat-|An|)/(Cat+|An|)  =  -0.00
                               Iterations  = 401 (3209 overall)
                         Gamma iterations  =   0
                      Osmotic coefficient  =   0.79775
                         Density of water  =   0.97553
                                  Total H  = 1.110186e+02
                                  Total O  = 5.551906e+01

----------------------------Distribution of species----------------------------

                                                    Unscaled  Unscaled
                                Unscaled       Log       Log       Log    mole V
   Species          Molality    Activity  Molality  Activity     Gamma    cm³/mol

   OH-             2.549e-08   2.549e-08    -7.594    -7.594     0.000    -34.38
   H+              5.511e-10   5.511e-10    -9.259    -9.259     0.000      0.00
   H2O             5.551e+01   9.983e-01     1.744    -0.001     0.000     18.47
Cl            4.878e-02
   Cl-             4.878e-02   4.878e-02    -1.312    -1.312     0.000     -6.69
Mg            4.880e-03
   Mg+2            4.880e-03   4.880e-03    -2.312    -2.312     0.000    -13.63
   MgOH+           1.746e-08   1.746e-08    -7.758    -7.758     0.000     (0)  
Na            4.390e-02
   Na+             4.390e-02   4.390e-02    -1.358    -1.358     0.000    -24.82
S(6)          2.440e-03
   SO4-2           2.440e-03   2.440e-03    -2.613    -2.613     0.000    -67.44

------------------------------Saturation indices-------------------------------

  Phase               SI** log IAP   log K(237 K,   1 atm)

  Bischofite       -9.47     -4.94    4.53  MgCl2:6H2O
  Bloedite         -7.67    -10.25   -2.59  Na2Mg(SO4)2:4H2O
  Epsomite         -2.13     -4.93   -2.80  MgSO4:7H2O
  Halite           -3.88     -2.67    1.21  NaCl
  Hexahydrite      -3.12     -4.93   -1.81  MgSO4:6H2O
  Hydrohalite      -3.30     -2.67    0.63  NaCl:2H2O
  Ice(s)            0.15     -0.00   -0.15  H2O
  Kieserite        -7.83     -4.92    2.91  MgSO4:H2O
  Meridianite      -1.15     -4.93   -3.78  MgSO4:11H2O
  MgCl2:12H2O      -6.11     -4.94    1.17  MgCl2:12H2O
  MgCl2:8H2O       -7.88     -4.94    2.94  MgCl2:8H2O
  Mirabilite       -0.88     -5.33   -4.46  Na2SO4:10H2O
  Thenardite       -4.99     -5.33   -0.34  Na2SO4

**For a gas, SI = log10(fugacity). Fugacity = pressure * phi / 1 atm.
  For ideal gases, phi = 1.

ERROR: Numerical method failed on all combinations of convergence parameters, cell/soln/mix 1
--------------------------------
End of Run after 59.241 Seconds.
--------------------------------

