   Input file: C:\Users\nswol\Dropbox\Graduate School\Research\UTIG\Projects\2021-Wolfenbarger-Bulk Properties\PHREEQC\frezchem\Binary\MgSO4_1ppt.pqi
  Output file: C:\Users\nswol\Dropbox\Graduate School\Research\UTIG\Projects\2021-Wolfenbarger-Bulk Properties\PHREEQC\frezchem\Binary\MgSO4_1ppt.pqo
Database file: C:\Program Files (x86)\USGS\Phreeqc Interactive 3.7.3-15968\database\frezchem.dat

------------------
Reading data base.
------------------

	PITZER
	SOLUTION_MASTER_SPECIES
	SOLUTION_SPECIES
	PHASES
	PITZER
	EXCHANGE_MASTER_SPECIES
	EXCHANGE_SPECIES
	SURFACE_MASTER_SPECIES
	SURFACE_SPECIES
	END
------------------------------------
Reading input data for simulation 1.
------------------------------------

	DATABASE C:\Program Files (x86)\USGS\Phreeqc Interactive 3.7.3-15968\database\frezchem.dat
	TITLE MgSO4 (1 ppt) - frezchem.dat
	SOLUTION
		units	mol/kgw
			Mg	0.0083	
			S	0.0083	
	EQUILIBRIUM_PHASES
		Anhydrite		0.0	0.0
		Antarcticite	0.0	0.0
		Aphthitalite	0.0	0.0
		Aragonite		0.0	0.0
		Arcanite		0.0	0.0
		Bischofite		0.0	0.0
		Bloedite		0.0	0.0
		Calcite		0.0	0.0
		Carnallite		0.0	0.0
		Dolomite		0.0	0.0
		Epsomite		0.0	0.0
		Gypsum		0.0	0.0
		Halite		0.0	0.0
		Hexahydrite		0.0	0.0
		Hydrohalite		0.0	0.0
		Hydromagnesite	0.0	0.0
		Ikaite		0.0	0.0
		Kalicinite		0.0	0.0
		Kieserite		0.0	0.0
		Landsfordite	0.0	0.0
		Magnesite		0.0	0.0
		Meridianite		0.0	0.0
		MgCl2:8H2O		0.0	0.0
		MgCl2:12H2O		0.0	0.0
		Mirabilite		0.0	0.0
		Na2CO3:7H2O		0.0	0.0
		Nahcolite		0.0	0.0
		Natron		0.0	0.0
		Nesquehonite	0.0	0.0
		Picromerite		0.0	0.0
		Sylvite		0.0	0.0
		Tachyhydrite	0.0	0.0
		Thenardite		0.0	0.0
		Trona			0.0	0.0
		Vaterite		0.0	0.0
		Ice(s) 		0.0	0.0
	REACTION_TEMPERATURE
	        0 -30.0 in 301 steps
	END
-----
TITLE
-----

 MgSO4 (1 ppt) - frezchem.dat

-------------------------------------------
Beginning of initial solution calculations.
-------------------------------------------

Initial solution 1.	

-----------------------------Solution composition------------------------------

	Elements           Molality       Moles

	Mg                8.300e-03   8.300e-03
	S                 8.300e-03   8.300e-03

----------------------------Description of solution----------------------------

                                       pH  =   7.000    
                                       pe  =   4.000    
      Specific Conductance (µS/cm,  25°C)  = 1748
                          Density (g/cm³)  =   0.99809
                               Volume (L)  =   1.00291
                        Activity of water  =   1.000
                 Ionic strength (mol/kgw)  =   3.320e-02
                       Mass of water (kg)  =   1.000e+00
                 Total alkalinity (eq/kg)  =   7.796e-08
                         Temperature (°C)  =  25.00
                  Electrical balance (eq)  =  -7.796e-08
 Percent error, 100*(Cat-|An|)/(Cat+|An|)  =  -0.00
                               Iterations  =   4
                         Gamma iterations  =   2
                      Osmotic coefficient  =   0.78357
                         Density of water  =   0.99704
                                  Total H  = 1.110186e+02
                                  Total O  = 5.554250e+01

----------------------------Distribution of species----------------------------

                                                    Unscaled  Unscaled
                                Unscaled       Log       Log       Log    mole V
   Species          Molality    Activity  Molality  Activity     Gamma    cm³/mol

   OH-             1.232e-07   1.012e-07    -6.909    -6.995    -0.086     -3.93
   H+              1.215e-07   1.000e-07    -6.915    -7.000    -0.085      0.00
   H2O             5.551e+01   9.998e-01     1.744    -0.000     0.000     18.07
Mg            8.300e-03
   Mg+2            8.300e-03   4.037e-03    -2.081    -2.394    -0.313    -21.41
   MgOH+           7.625e-08   6.262e-08    -7.118    -7.203    -0.086     (0)  
S(6)          8.300e-03
   SO4-2           8.300e-03   4.037e-03    -2.081    -2.394    -0.313     15.14

------------------------------Saturation indices-------------------------------

  Phase               SI** log IAP   log K(298 K,   1 atm)

  Epsomite         -2.91     -4.79   -1.88  MgSO4:7H2O
  Hexahydrite      -3.16     -4.79   -1.63  MgSO4:6H2O
  Ice(s)           -0.10     -0.00    0.10  H2O
  Kieserite        -4.58     -4.79   -0.20  MgSO4:H2O
  Meridianite      -3.48     -4.79   -1.31  MgSO4:11H2O

**For a gas, SI = log10(fugacity). Fugacity = pressure * phi / 1 atm.
  For ideal gases, phi = 1.

-----------------------------------------
Beginning of batch-reaction calculations.
-----------------------------------------

Reaction step 1.

WARNING: Element Ca is contained in Anhydrite (which has 0.0 mass),	
but is not in solution or other phases.
WARNING: Element Ca is contained in Antarcticite (which has 0.0 mass),	
but is not in solution or other phases.
WARNING: Element Cl is contained in Antarcticite (which has 0.0 mass),	
but is not in solution or other phases.
WARNING: Element K is contained in Aphthitalite (which has 0.0 mass),	
but is not in solution or other phases.
WARNING: Element Na is contained in Aphthitalite (which has 0.0 mass),	
but is not in solution or other phases.
WARNING: Element C is contained in Aragonite (which has 0.0 mass),	
but is not in solution or other phases.
WARNING: Element Ca is contained in Aragonite (which has 0.0 mass),	
but is not in solution or other phases.
WARNING: Element K is contained in Arcanite (which has 0.0 mass),	
but is not in solution or other phases.
WARNING: Element Cl is contained in Bischofite (which has 0.0 mass),	
but is not in solution or other phases.
WARNING: Element Na is contained in Bloedite (which has 0.0 mass),	
but is not in solution or other phases.
WARNING: Element C is contained in Calcite (which has 0.0 mass),	
but is not in solution or other phases.
WARNING: Element Ca is contained in Calcite (which has 0.0 mass),	
but is not in solution or other phases.
WARNING: Element Cl is contained in Carnallite (which has 0.0 mass),	
but is not in solution or other phases.
WARNING: Element K is contained in Carnallite (which has 0.0 mass),	
but is not in solution or other phases.
WARNING: Element C is contained in Dolomite (which has 0.0 mass),	
but is not in solution or other phases.
WARNING: Element Ca is contained in Dolomite (which has 0.0 mass),	
but is not in solution or other phases.
WARNING: Element Ca is contained in Gypsum (which has 0.0 mass),	
but is not in solution or other phases.
WARNING: Element Cl is contained in Halite (which has 0.0 mass),	
but is not in solution or other phases.
WARNING: Element Na is contained in Halite (which has 0.0 mass),	
but is not in solution or other phases.
WARNING: Element Cl is contained in Hydrohalite (which has 0.0 mass),	
but is not in solution or other phases.
WARNING: Element Na is contained in Hydrohalite (which has 0.0 mass),	
but is not in solution or other phases.
WARNING: Element C is contained in Hydromagnesite (which has 0.0 mass),	
but is not in solution or other phases.
WARNING: Element C is contained in Ikaite (which has 0.0 mass),	
but is not in solution or other phases.
WARNING: Element Ca is contained in Ikaite (which has 0.0 mass),	
but is not in solution or other phases.
WARNING: Element C is contained in Kalicinite (which has 0.0 mass),	
but is not in solution or other phases.
WARNING: Element K is contained in Kalicinite (which has 0.0 mass),	
but is not in solution or other phases.
WARNING: Element C is contained in Landsfordite (which has 0.0 mass),	
but is not in solution or other phases.
WARNING: Element C is contained in Magnesite (which has 0.0 mass),	
but is not in solution or other phases.
WARNING: Element Cl is contained in MgCl2:12H2O (which has 0.0 mass),	
but is not in solution or other phases.
WARNING: Element Cl is contained in MgCl2:8H2O (which has 0.0 mass),	
but is not in solution or other phases.
WARNING: Element Na is contained in Mirabilite (which has 0.0 mass),	
but is not in solution or other phases.
WARNING: Element C is contained in Na2CO3:7H2O (which has 0.0 mass),	
but is not in solution or other phases.
WARNING: Element Na is contained in Na2CO3:7H2O (which has 0.0 mass),	
but is not in solution or other phases.
WARNING: Element C is contained in Nahcolite (which has 0.0 mass),	
but is not in solution or other phases.
WARNING: Element Na is contained in Nahcolite (which has 0.0 mass),	
but is not in solution or other phases.
WARNING: Element C is contained in Natron (which has 0.0 mass),	
but is not in solution or other phases.
WARNING: Element Na is contained in Natron (which has 0.0 mass),	
but is not in solution or other phases.
WARNING: Element C is contained in Nesquehonite (which has 0.0 mass),	
but is not in solution or other phases.
WARNING: Element K is contained in Picromerite (which has 0.0 mass),	
but is not in solution or other phases.
WARNING: Element Cl is contained in Sylvite (which has 0.0 mass),	
but is not in solution or other phases.
WARNING: Element K is contained in Sylvite (which has 0.0 mass),	
but is not in solution or other phases.
WARNING: Element Ca is contained in Tachyhydrite (which has 0.0 mass),	
but is not in solution or other phases.
WARNING: Element Cl is contained in Tachyhydrite (which has 0.0 mass),	
but is not in solution or other phases.
WARNING: Element Na is contained in Thenardite (which has 0.0 mass),	
but is not in solution or other phases.
WARNING: Element C is contained in Trona (which has 0.0 mass),	
but is not in solution or other phases.
WARNING: Element Na is contained in Trona (which has 0.0 mass),	
but is not in solution or other phases.
WARNING: Element C is contained in Vaterite (which has 0.0 mass),	
but is not in solution or other phases.
WARNING: Element Ca is contained in Vaterite (which has 0.0 mass),	
but is not in solution or other phases.
Using solution 1.	
Using pure phase assemblage 1.	
Using temperature 1.	

-------------------------------Phase assemblage--------------------------------

                                                      Moles in assemblage
Phase               SI  log IAP  log K(T, P)   Initial       Final       Delta

Anhydrite            Element not present.    0.000e+00           0   0.000e+00
Antarcticite         Element not present.    0.000e+00           0   0.000e+00
Aphthitalite         Element not present.    0.000e+00           0   0.000e+00
Aragonite            Element not present.    0.000e+00           0   0.000e+00
Arcanite             Element not present.    0.000e+00           0   0.000e+00
Bischofite           Element not present.    0.000e+00           0   0.000e+00
Bloedite             Element not present.    0.000e+00           0   0.000e+00
Calcite              Element not present.    0.000e+00           0   0.000e+00
Carnallite           Element not present.    0.000e+00           0   0.000e+00
Dolomite             Element not present.    0.000e+00           0   0.000e+00
Epsomite         -2.51    -4.72     -2.21    0.000e+00           0   0.000e+00
Gypsum               Element not present.    0.000e+00           0   0.000e+00
Halite               Element not present.    0.000e+00           0   0.000e+00
Hexahydrite      -3.02    -4.72     -1.70    0.000e+00           0   0.000e+00
Hydrohalite          Element not present.    0.000e+00           0   0.000e+00
Hydromagnesite       Element not present.    0.000e+00           0   0.000e+00
Ice(s)           -0.00    -0.00      0.00    0.000e+00           0   0.000e+00
Ikaite               Element not present.    0.000e+00           0   0.000e+00
Kalicinite           Element not present.    0.000e+00           0   0.000e+00
Kieserite        -5.27    -4.72      0.55    0.000e+00           0   0.000e+00
Landsfordite         Element not present.    0.000e+00           0   0.000e+00
Magnesite            Element not present.    0.000e+00           0   0.000e+00
Meridianite      -2.40    -4.72     -2.32    0.000e+00           0   0.000e+00
MgCl2:12H2O          Element not present.    0.000e+00           0   0.000e+00
MgCl2:8H2O           Element not present.    0.000e+00           0   0.000e+00
Mirabilite           Element not present.    0.000e+00           0   0.000e+00
Na2CO3:7H2O          Element not present.    0.000e+00           0   0.000e+00
Nahcolite            Element not present.    0.000e+00           0   0.000e+00
Natron               Element not present.    0.000e+00           0   0.000e+00
Nesquehonite         Element not present.    0.000e+00           0   0.000e+00
Picromerite          Element not present.    0.000e+00           0   0.000e+00
Sylvite              Element not present.    0.000e+00           0   0.000e+00
Tachyhydrite         Element not present.    0.000e+00           0   0.000e+00
Thenardite           Element not present.    0.000e+00           0   0.000e+00
Trona                Element not present.    0.000e+00           0   0.000e+00
Vaterite             Element not present.    0.000e+00           0   0.000e+00

-----------------------------Solution composition------------------------------

	Elements           Molality       Moles

	Mg                8.300e-03   8.300e-03
	S                 8.300e-03   8.300e-03

----------------------------Description of solution----------------------------

                                       pH  =   7.679      Charge balance
                                       pe  =   4.000      Adjusted to redox equilibrium
      Specific Conductance (µS/cm,   0°C)  = 875
                          Density (g/cm³)  =   1.00093
                               Volume (L)  =   1.00007
                        Activity of water  =   1.000
                 Ionic strength (mol/kgw)  =   3.320e-02
                       Mass of water (kg)  =   1.000e+00
                 Total alkalinity (eq/kg)  =   7.796e-08
                         Temperature (°C)  =   0.00
                  Electrical balance (eq)  =  -7.796e-08
 Percent error, 100*(Cat-|An|)/(Cat+|An|)  =  -0.00
                               Iterations  =   5
                         Gamma iterations  =   2
                      Osmotic coefficient  =   0.80348
                         Density of water  =   0.99984
                                  Total H  = 1.110186e+02
                                  Total O  = 5.554250e+01

----------------------------Distribution of species----------------------------

                                                    Unscaled  Unscaled
                                Unscaled       Log       Log       Log    mole V
   Species          Molality    Activity  Molality  Activity     Gamma    cm³/mol

   OH-             6.707e-08   5.513e-08    -7.173    -7.259    -0.085     -6.02
   H+              2.540e-08   2.093e-08    -7.595    -7.679    -0.084      0.00
   H2O             5.551e+01   9.998e-01     1.744    -0.000     0.000     18.02
Mg            8.300e-03
   Mg+2            8.300e-03   4.357e-03    -2.081    -2.361    -0.280    -20.45
   MgOH+           3.630e-08   2.984e-08    -7.440    -7.525    -0.085     (0)  
S(6)          8.300e-03
   SO4-2           8.300e-03   4.357e-03    -2.081    -2.361    -0.280      9.27

------------------------------Saturation indices-------------------------------

  Phase               SI** log IAP   log K(273 K,   1 atm)

  Epsomite         -2.51     -4.72   -2.21  MgSO4:7H2O
  Hexahydrite      -3.02     -4.72   -1.70  MgSO4:6H2O
  Ice(s)           -0.00     -0.00    0.00  H2O
  Kieserite        -5.27     -4.72    0.55  MgSO4:H2O
  Meridianite      -2.40     -4.72   -2.32  MgSO4:11H2O

**For a gas, SI = log10(fugacity). Fugacity = pressure * phi / 1 atm.
  For ideal gases, phi = 1.

Reaction step 2.

WARNING: Element Ca is contained in Anhydrite (which has 0.0 mass),	
but is not in solution or other phases.
WARNING: Element Ca is contained in Antarcticite (which has 0.0 mass),	
but is not in solution or other phases.
WARNING: Element Cl is contained in Antarcticite (which has 0.0 mass),	
but is not in solution or other phases.
WARNING: Element K is contained in Aphthitalite (which has 0.0 mass),	
but is not in solution or other phases.
WARNING: Element Na is contained in Aphthitalite (which has 0.0 mass),	
but is not in solution or other phases.
WARNING: Element C is contained in Aragonite (which has 0.0 mass),	
but is not in solution or other phases.
WARNING: Element Ca is contained in Aragonite (which has 0.0 mass),	
but is not in solution or other phases.
WARNING: Element K is contained in Arcanite (which has 0.0 mass),	
but is not in solution or other phases.
WARNING: Element Cl is contained in Bischofite (which has 0.0 mass),	
but is not in solution or other phases.
WARNING: Element Na is contained in Bloedite (which has 0.0 mass),	
but is not in solution or other phases.
WARNING: Element C is contained in Calcite (which has 0.0 mass),	
but is not in solution or other phases.
WARNING: Element Ca is contained in Calcite (which has 0.0 mass),	
but is not in solution or other phases.
WARNING: Element Cl is contained in Carnallite (which has 0.0 mass),	
but is not in solution or other phases.
WARNING: Element K is contained in Carnallite (which has 0.0 mass),	
but is not in solution or other phases.
WARNING: Element C is contained in Dolomite (which has 0.0 mass),	
but is not in solution or other phases.
WARNING: Element Ca is contained in Dolomite (which has 0.0 mass),	
but is not in solution or other phases.
WARNING: Element Ca is contained in Gypsum (which has 0.0 mass),	
but is not in solution or other phases.
WARNING: Element Cl is contained in Halite (which has 0.0 mass),	
but is not in solution or other phases.
WARNING: Element Na is contained in Halite (which has 0.0 mass),	
but is not in solution or other phases.
WARNING: Element Cl is contained in Hydrohalite (which has 0.0 mass),	
but is not in solution or other phases.
WARNING: Element Na is contained in Hydrohalite (which has 0.0 mass),	
but is not in solution or other phases.
WARNING: Element C is contained in Hydromagnesite (which has 0.0 mass),	
but is not in solution or other phases.
WARNING: Element C is contained in Ikaite (which has 0.0 mass),	
but is not in solution or other phases.
WARNING: Element Ca is contained in Ikaite (which has 0.0 mass),	
but is not in solution or other phases.
WARNING: Element C is contained in Kalicinite (which has 0.0 mass),	
but is not in solution or other phases.
WARNING: Element K is contained in Kalicinite (which has 0.0 mass),	
but is not in solution or other phases.
WARNING: Element C is contained in Landsfordite (which has 0.0 mass),	
but is not in solution or other phases.
WARNING: Element C is contained in Magnesite (which has 0.0 mass),	
but is not in solution or other phases.
WARNING: Element Cl is contained in MgCl2:12H2O (which has 0.0 mass),	
but is not in solution or other phases.
WARNING: Element Cl is contained in MgCl2:8H2O (which has 0.0 mass),	
but is not in solution or other phases.
WARNING: Element Na is contained in Mirabilite (which has 0.0 mass),	
but is not in solution or other phases.
WARNING: Element C is contained in Na2CO3:7H2O (which has 0.0 mass),	
but is not in solution or other phases.
WARNING: Element Na is contained in Na2CO3:7H2O (which has 0.0 mass),	
but is not in solution or other phases.
WARNING: Element C is contained in Nahcolite (which has 0.0 mass),	
but is not in solution or other phases.
WARNING: Element Na is contained in Nahcolite (which has 0.0 mass),	
but is not in solution or other phases.
WARNING: Element C is contained in Natron (which has 0.0 mass),	
but is not in solution or other phases.
WARNING: Element Na is contained in Natron (which has 0.0 mass),	
but is not in solution or other phases.
WARNING: Element C is contained in Nesquehonite (which has 0.0 mass),	
but is not in solution or other phases.
WARNING: Element K is contained in Picromerite (which has 0.0 mass),	
but is not in solution or other phases.
WARNING: Element Cl is contained in Sylvite (which has 0.0 mass),	
but is not in solution or other phases.
WARNING: Element K is contained in Sylvite (which has 0.0 mass),	
but is not in solution or other phases.
WARNING: Element Ca is contained in Tachyhydrite (which has 0.0 mass),	
but is not in solution or other phases.
WARNING: Element Cl is contained in Tachyhydrite (which has 0.0 mass),	
but is not in solution or other phases.
WARNING: Element Na is contained in Thenardite (which has 0.0 mass),	
but is not in solution or other phases.
WARNING: Element C is contained in Trona (which has 0.0 mass),	
but is not in solution or other phases.
WARNING: Element Na is contained in Trona (which has 0.0 mass),	
but is not in solution or other phases.
WARNING: Element C is contained in Vaterite (which has 0.0 mass),	
but is not in solution or other phases.
WARNING: Element Ca is contained in Vaterite (which has 0.0 mass),	
but is not in solution or other phases.
WARNING: Maximum iterations exceeded, 200

WARNING: Numerical method failed with this set of convergence parameters.

WARNING: Trying smaller step size, pe step size 10, 5 ... 

WARNING: Element Ca is contained in Anhydrite (which has 0.0 mass),	
but is not in solution or other phases.
Using solution 1.	
Using pure phase assemblage 1.	
Using temperature 1.	

-------------------------------Phase assemblage--------------------------------

                                                      Moles in assemblage
Phase               SI  log IAP  log K(T, P)   Initial       Final       Delta

Anhydrite            Element not present.    0.000e+00           0   0.000e+00
Antarcticite         Element not present.    0.000e+00           0   0.000e+00
Aphthitalite         Element not present.    0.000e+00           0   0.000e+00
Aragonite            Element not present.    0.000e+00           0   0.000e+00
Arcanite             Element not present.    0.000e+00           0   0.000e+00
Bischofite           Element not present.    0.000e+00           0   0.000e+00
Bloedite             Element not present.    0.000e+00           0   0.000e+00
Calcite              Element not present.    0.000e+00           0   0.000e+00
Carnallite           Element not present.    0.000e+00           0   0.000e+00
Dolomite             Element not present.    0.000e+00           0   0.000e+00
Epsomite         -1.64    -3.85     -2.21    0.000e+00           0   0.000e+00
Gypsum               Element not present.    0.000e+00           0   0.000e+00
Halite               Element not present.    0.000e+00           0   0.000e+00
Hexahydrite      -2.15    -3.85     -1.70    0.000e+00           0   0.000e+00
Hydrohalite          Element not present.    0.000e+00           0   0.000e+00
Hydromagnesite       Element not present.    0.000e+00           0   0.000e+00
Ice(s)            0.00    -0.00     -0.00    0.000e+00   4.409e+01   4.409e+01
Ikaite               Element not present.    0.000e+00           0   0.000e+00
Kalicinite           Element not present.    0.000e+00           0   0.000e+00
Kieserite        -4.40    -3.85      0.55    0.000e+00           0   0.000e+00
Landsfordite         Element not present.    0.000e+00           0   0.000e+00
Magnesite            Element not present.    0.000e+00           0   0.000e+00
Meridianite      -1.53    -3.85     -2.33    0.000e+00           0   0.000e+00
MgCl2:12H2O          Element not present.    0.000e+00           0   0.000e+00
MgCl2:8H2O           Element not present.    0.000e+00           0   0.000e+00
Mirabilite           Element not present.    0.000e+00           0   0.000e+00
Na2CO3:7H2O          Element not present.    0.000e+00           0   0.000e+00
Nahcolite            Element not present.    0.000e+00           0   0.000e+00
Natron               Element not present.    0.000e+00           0   0.000e+00
Nesquehonite         Element not present.    0.000e+00           0   0.000e+00
Picromerite          Element not present.    0.000e+00           0   0.000e+00
Sylvite              Element not present.    0.000e+00           0   0.000e+00
Tachyhydrite         Element not present.    0.000e+00           0   0.000e+00
Thenardite           Element not present.    0.000e+00           0   0.000e+00
Trona                Element not present.    0.000e+00           0   0.000e+00
Vaterite             Element not present.    0.000e+00           0   0.000e+00

-----------------------------Solution composition------------------------------

	Elements           Molality       Moles

	Mg                4.035e-02   8.300e-03
	S                 4.035e-02   8.300e-03

----------------------------Description of solution----------------------------

                                       pH  =   7.975      Charge balance
                                       pe  =   4.000      Adjusted to redox equilibrium
      Specific Conductance (µS/cm,  -0°C)  = 3489
                          Density (g/cm³)  =   1.00508
                               Volume (L)  =   0.20563
                        Activity of water  =   0.999
                 Ionic strength (mol/kgw)  =   1.614e-01
                       Mass of water (kg)  =   2.057e-01
                 Total alkalinity (eq/kg)  =   3.791e-07
                         Temperature (°C)  =  -0.10
                  Electrical balance (eq)  =  -7.796e-08
 Percent error, 100*(Cat-|An|)/(Cat+|An|)  =  -0.00
                               Iterations  =  12 (1416 overall)
                         Gamma iterations  =   1
                      Osmotic coefficient  =   0.65226
                         Density of water  =   0.99983
                                  Total H  = 2.283423e+01
                                  Total O  = 1.145032e+01

----------------------------Distribution of species----------------------------

                                                    Unscaled  Unscaled
                                Unscaled       Log       Log       Log    mole V
   Species          Molality    Activity  Molality  Activity     Gamma    cm³/mol

   OH-             1.593e-07   1.079e-07    -6.798    -6.967    -0.169     -5.73
   H+              1.544e-08   1.058e-08    -7.811    -7.975    -0.164      0.00
   H2O             5.551e+01   9.991e-01     1.744    -0.000     0.000     18.02
Mg            4.035e-02
   Mg+2            4.035e-02   1.191e-02    -1.394    -1.924    -0.530    -20.12
   MgOH+           2.352e-07   1.595e-07    -6.629    -6.797    -0.169     (0)  
S(6)          4.035e-02
   SO4-2           4.035e-02   1.191e-02    -1.394    -1.924    -0.530     10.55

------------------------------Saturation indices-------------------------------

  Phase               SI** log IAP   log K(273 K,   1 atm)

  Epsomite         -1.64     -3.85   -2.21  MgSO4:7H2O
  Hexahydrite      -2.15     -3.85   -1.70  MgSO4:6H2O
  Ice(s)            0.00     -0.00   -0.00  H2O
  Kieserite        -4.40     -3.85    0.55  MgSO4:H2O
  Meridianite      -1.53     -3.85   -2.33  MgSO4:11H2O

**For a gas, SI = log10(fugacity). Fugacity = pressure * phi / 1 atm.
  For ideal gases, phi = 1.

Reaction step 3.

Using solution 1.	
Using pure phase assemblage 1.	
Using temperature 1.	

-------------------------------Phase assemblage--------------------------------

                                                      Moles in assemblage
Phase               SI  log IAP  log K(T, P)   Initial       Final       Delta

Anhydrite            Element not present.    0.000e+00           0   0.000e+00
Antarcticite         Element not present.    0.000e+00           0   0.000e+00
Aphthitalite         Element not present.    0.000e+00           0   0.000e+00
Aragonite            Element not present.    0.000e+00           0   0.000e+00
Arcanite             Element not present.    0.000e+00           0   0.000e+00
Bischofite           Element not present.    0.000e+00           0   0.000e+00
Bloedite             Element not present.    0.000e+00           0   0.000e+00
Calcite              Element not present.    0.000e+00           0   0.000e+00
Carnallite           Element not present.    0.000e+00           0   0.000e+00
Dolomite             Element not present.    0.000e+00           0   0.000e+00
Epsomite         -1.27    -3.48     -2.21    0.000e+00           0   0.000e+00
Gypsum               Element not present.    0.000e+00           0   0.000e+00
Halite               Element not present.    0.000e+00           0   0.000e+00
Hexahydrite      -1.78    -3.48     -1.70    0.000e+00           0   0.000e+00
Hydrohalite          Element not present.    0.000e+00           0   0.000e+00
Hydromagnesite       Element not present.    0.000e+00           0   0.000e+00
Ice(s)            0.00    -0.00     -0.00    0.000e+00   5.057e+01   5.057e+01
Ikaite               Element not present.    0.000e+00           0   0.000e+00
Kalicinite           Element not present.    0.000e+00           0   0.000e+00
Kieserite        -4.03    -3.48      0.56    0.000e+00           0   0.000e+00
Landsfordite         Element not present.    0.000e+00           0   0.000e+00
Magnesite            Element not present.    0.000e+00           0   0.000e+00
Meridianite      -1.15    -3.49     -2.33    0.000e+00           0   0.000e+00
MgCl2:12H2O          Element not present.    0.000e+00           0   0.000e+00
MgCl2:8H2O           Element not present.    0.000e+00           0   0.000e+00
Mirabilite           Element not present.    0.000e+00           0   0.000e+00
Na2CO3:7H2O          Element not present.    0.000e+00           0   0.000e+00
Nahcolite            Element not present.    0.000e+00           0   0.000e+00
Natron               Element not present.    0.000e+00           0   0.000e+00
Nesquehonite         Element not present.    0.000e+00           0   0.000e+00
Picromerite          Element not present.    0.000e+00           0   0.000e+00
Sylvite              Element not present.    0.000e+00           0   0.000e+00
Tachyhydrite         Element not present.    0.000e+00           0   0.000e+00
Thenardite           Element not present.    0.000e+00           0   0.000e+00
Trona                Element not present.    0.000e+00           0   0.000e+00
Vaterite             Element not present.    0.000e+00           0   0.000e+00

-----------------------------Solution composition------------------------------

	Elements           Molality       Moles

	Mg                9.321e-02   8.300e-03
	S                 9.321e-02   8.300e-03

----------------------------Description of solution----------------------------

                                       pH  =   8.147      Charge balance
                                       pe  =   4.000      Adjusted to redox equilibrium
      Specific Conductance (µS/cm,  -0°C)  = 6820
                          Density (g/cm³)  =   1.01181
                               Volume (L)  =   0.08899
                        Activity of water  =   0.998
                 Ionic strength (mol/kgw)  =   3.728e-01
                       Mass of water (kg)  =   8.905e-02
                 Total alkalinity (eq/kg)  =   8.755e-07
                         Temperature (°C)  =  -0.20
                  Electrical balance (eq)  =  -7.796e-08
 Percent error, 100*(Cat-|An|)/(Cat+|An|)  =  -0.00
                               Iterations  =  17 (1421 overall)
                         Gamma iterations  =   1
                      Osmotic coefficient  =   0.56889
                         Density of water  =   0.99983
                                  Total H  = 9.885659e+00
                                  Total O  = 4.976030e+00

----------------------------Distribution of species----------------------------

                                                    Unscaled  Unscaled
                                Unscaled       Log       Log       Log    mole V
   Species          Molality    Activity  Molality  Activity     Gamma    cm³/mol

   OH-             2.722e-07   1.584e-07    -6.565    -6.800    -0.235     -5.36
   H+              1.192e-08   7.128e-09    -7.924    -8.147    -0.223      0.00
   H2O             5.551e+01   9.981e-01     1.744    -0.001     0.000     18.02
Mg            9.321e-02
   Mg+2            9.321e-02   1.826e-02    -1.031    -1.739    -0.708    -19.88
   MgOH+           6.153e-07   3.589e-07    -6.211    -6.445    -0.234     (0)  
S(6)          9.321e-02
   SO4-2           9.321e-02   1.826e-02    -1.031    -1.739    -0.708     11.73

------------------------------Saturation indices-------------------------------

  Phase               SI** log IAP   log K(272 K,   1 atm)

  Epsomite         -1.27     -3.48   -2.21  MgSO4:7H2O
  Hexahydrite      -1.78     -3.48   -1.70  MgSO4:6H2O
  Ice(s)            0.00     -0.00   -0.00  H2O
  Kieserite        -4.03     -3.48    0.56  MgSO4:H2O
  Meridianite      -1.15     -3.49   -2.33  MgSO4:11H2O

**For a gas, SI = log10(fugacity). Fugacity = pressure * phi / 1 atm.
  For ideal gases, phi = 1.

Reaction step 4.

Using solution 1.	
Using pure phase assemblage 1.	
Using temperature 1.	

-------------------------------Phase assemblage--------------------------------

                                                      Moles in assemblage
Phase               SI  log IAP  log K(T, P)   Initial       Final       Delta

Anhydrite            Element not present.    0.000e+00           0   0.000e+00
Antarcticite         Element not present.    0.000e+00           0   0.000e+00
Aphthitalite         Element not present.    0.000e+00           0   0.000e+00
Aragonite            Element not present.    0.000e+00           0   0.000e+00
Arcanite             Element not present.    0.000e+00           0   0.000e+00
Bischofite           Element not present.    0.000e+00           0   0.000e+00
Bloedite             Element not present.    0.000e+00           0   0.000e+00
Calcite              Element not present.    0.000e+00           0   0.000e+00
Carnallite           Element not present.    0.000e+00           0   0.000e+00
Dolomite             Element not present.    0.000e+00           0   0.000e+00
Epsomite         -1.08    -3.29     -2.22    0.000e+00           0   0.000e+00
Gypsum               Element not present.    0.000e+00           0   0.000e+00
Halite               Element not present.    0.000e+00           0   0.000e+00
Hexahydrite      -1.59    -3.29     -1.70    0.000e+00           0   0.000e+00
Hydrohalite          Element not present.    0.000e+00           0   0.000e+00
Hydromagnesite       Element not present.    0.000e+00           0   0.000e+00
Ice(s)            0.00    -0.00     -0.00    0.000e+00   5.248e+01   5.248e+01
Ikaite               Element not present.    0.000e+00           0   0.000e+00
Kalicinite           Element not present.    0.000e+00           0   0.000e+00
Kieserite        -3.85    -3.28      0.56    0.000e+00           0   0.000e+00
Landsfordite         Element not present.    0.000e+00           0   0.000e+00
Magnesite            Element not present.    0.000e+00           0   0.000e+00
Meridianite      -0.96    -3.30     -2.34    0.000e+00           0   0.000e+00
MgCl2:12H2O          Element not present.    0.000e+00           0   0.000e+00
MgCl2:8H2O           Element not present.    0.000e+00           0   0.000e+00
Mirabilite           Element not present.    0.000e+00           0   0.000e+00
Na2CO3:7H2O          Element not present.    0.000e+00           0   0.000e+00
Nahcolite            Element not present.    0.000e+00           0   0.000e+00
Natron               Element not present.    0.000e+00           0   0.000e+00
Nesquehonite         Element not present.    0.000e+00           0   0.000e+00
Picromerite          Element not present.    0.000e+00           0   0.000e+00
Sylvite              Element not present.    0.000e+00           0   0.000e+00
Tachyhydrite         Element not present.    0.000e+00           0   0.000e+00
Thenardite           Element not present.    0.000e+00           0   0.000e+00
Trona                Element not present.    0.000e+00           0   0.000e+00
Vaterite             Element not present.    0.000e+00           0   0.000e+00

-----------------------------Solution composition------------------------------

	Elements           Molality       Moles

	Mg                1.521e-01   8.300e-03
	S                 1.521e-01   8.300e-03

----------------------------Description of solution----------------------------

                                       pH  =   8.246      Charge balance
                                       pe  =   4.000      Adjusted to redox equilibrium
      Specific Conductance (µS/cm,  -0°C)  = 9739
                          Density (g/cm³)  =   1.01922
                               Volume (L)  =   0.05451
                        Activity of water  =   0.997
                 Ionic strength (mol/kgw)  =   6.085e-01
                       Mass of water (kg)  =   5.456e-02
                 Total alkalinity (eq/kg)  =   1.429e-06
                         Temperature (°C)  =  -0.30
                  Electrical balance (eq)  =  -7.796e-08
 Percent error, 100*(Cat-|An|)/(Cat+|An|)  =  -0.00
                               Iterations  =  19 (1423 overall)
                         Gamma iterations  =   1
                      Osmotic coefficient  =   0.52414
                         Density of water  =   0.99982
                                  Total H  = 6.057019e+00
                                  Total O  = 3.061710e+00

----------------------------Distribution of species----------------------------

                                                    Unscaled  Unscaled
                                Unscaled       Log       Log       Log    mole V
   Species          Molality    Activity  Molality  Activity     Gamma    cm³/mol

   OH-             3.768e-07   1.967e-07    -6.424    -6.706    -0.282     -4.99
   H+              1.040e-08   5.676e-09    -7.983    -8.246    -0.263      0.00
   H2O             5.551e+01   9.971e-01     1.744    -0.001     0.000     18.02
Mg            1.521e-01
   Mg+2            1.521e-01   2.282e-02    -0.818    -1.642    -0.824    -19.70
   MgOH+           1.063e-06   5.570e-07    -5.974    -6.254    -0.281     (0)  
S(6)          1.521e-01
   SO4-2           1.521e-01   2.282e-02    -0.818    -1.642    -0.824     12.67

------------------------------Saturation indices-------------------------------

  Phase               SI** log IAP   log K(272 K,   1 atm)

  Epsomite         -1.08     -3.29   -2.22  MgSO4:7H2O
  Hexahydrite      -1.59     -3.29   -1.70  MgSO4:6H2O
  Ice(s)            0.00     -0.00   -0.00  H2O
  Kieserite        -3.85     -3.28    0.56  MgSO4:H2O
  Meridianite      -0.96     -3.30   -2.34  MgSO4:11H2O

**For a gas, SI = log10(fugacity). Fugacity = pressure * phi / 1 atm.
  For ideal gases, phi = 1.

Reaction step 5.

Using solution 1.	
Using pure phase assemblage 1.	
Using temperature 1.	

-------------------------------Phase assemblage--------------------------------

                                                      Moles in assemblage
Phase               SI  log IAP  log K(T, P)   Initial       Final       Delta

Anhydrite            Element not present.    0.000e+00           0   0.000e+00
Antarcticite         Element not present.    0.000e+00           0   0.000e+00
Aphthitalite         Element not present.    0.000e+00           0   0.000e+00
Aragonite            Element not present.    0.000e+00           0   0.000e+00
Arcanite             Element not present.    0.000e+00           0   0.000e+00
Bischofite           Element not present.    0.000e+00           0   0.000e+00
Bloedite             Element not present.    0.000e+00           0   0.000e+00
Calcite              Element not present.    0.000e+00           0   0.000e+00
Carnallite           Element not present.    0.000e+00           0   0.000e+00
Dolomite             Element not present.    0.000e+00           0   0.000e+00
Epsomite         -0.95    -3.17     -2.22    0.000e+00           0   0.000e+00
Gypsum               Element not present.    0.000e+00           0   0.000e+00
Halite               Element not present.    0.000e+00           0   0.000e+00
Hexahydrite      -1.46    -3.17     -1.70    0.000e+00           0   0.000e+00
Hydrohalite          Element not present.    0.000e+00           0   0.000e+00
Hydromagnesite       Element not present.    0.000e+00           0   0.000e+00
Ice(s)            0.00    -0.00     -0.00    0.000e+00   5.337e+01   5.337e+01
Ikaite               Element not present.    0.000e+00           0   0.000e+00
Kalicinite           Element not present.    0.000e+00           0   0.000e+00
Kieserite        -3.72    -3.16      0.57    0.000e+00           0   0.000e+00
Landsfordite         Element not present.    0.000e+00           0   0.000e+00
Magnesite            Element not present.    0.000e+00           0   0.000e+00
Meridianite      -0.83    -3.17     -2.34    0.000e+00           0   0.000e+00
MgCl2:12H2O          Element not present.    0.000e+00           0   0.000e+00
MgCl2:8H2O           Element not present.    0.000e+00           0   0.000e+00
Mirabilite           Element not present.    0.000e+00           0   0.000e+00
Na2CO3:7H2O          Element not present.    0.000e+00           0   0.000e+00
Nahcolite            Element not present.    0.000e+00           0   0.000e+00
Natron               Element not present.    0.000e+00           0   0.000e+00
Nesquehonite         Element not present.    0.000e+00           0   0.000e+00
Picromerite          Element not present.    0.000e+00           0   0.000e+00
Sylvite              Element not present.    0.000e+00           0   0.000e+00
Tachyhydrite         Element not present.    0.000e+00           0   0.000e+00
Thenardite           Element not present.    0.000e+00           0   0.000e+00
Trona                Element not present.    0.000e+00           0   0.000e+00
Vaterite             Element not present.    0.000e+00           0   0.000e+00

-----------------------------Solution composition------------------------------

	Elements           Molality       Moles

	Mg                2.154e-01   8.300e-03
	S                 2.154e-01   8.300e-03

----------------------------Description of solution----------------------------

                                       pH  =   8.315      Charge balance
                                       pe  =   4.000      Adjusted to redox equilibrium
      Specific Conductance (µS/cm,  -0°C)  = 12249
                          Density (g/cm³)  =   1.02708
                               Volume (L)  =   0.03849
                        Activity of water  =   0.996
                 Ionic strength (mol/kgw)  =   8.617e-01
                       Mass of water (kg)  =   3.853e-02
                 Total alkalinity (eq/kg)  =   2.023e-06
                         Temperature (°C)  =  -0.40
                  Electrical balance (eq)  =  -7.796e-08
 Percent error, 100*(Cat-|An|)/(Cat+|An|)  =  -0.00
                               Iterations  =  22 (1426 overall)
                         Gamma iterations  =   1
                      Osmotic coefficient  =   0.49417
                         Density of water  =   0.99981
                                  Total H  = 4.277589e+00
                                  Total O  = 2.171994e+00

----------------------------Distribution of species----------------------------

                                                    Unscaled  Unscaled
                                Unscaled       Log       Log       Log    mole V
   Species          Molality    Activity  Molality  Activity     Gamma    cm³/mol

   OH-             4.771e-07   2.283e-07    -6.321    -6.641    -0.320     -4.62
   H+              9.477e-09   4.837e-09    -8.023    -8.315    -0.292      0.00
   H2O             5.551e+01   9.962e-01     1.744    -0.002     0.000     18.02
Mg            2.154e-01
   Mg+2            2.154e-01   2.644e-02    -0.667    -1.578    -0.911    -19.55
   MgOH+           1.556e-06   7.487e-07    -5.808    -6.126    -0.318     (0)  
S(6)          2.154e-01
   SO4-2           2.154e-01   2.644e-02    -0.667    -1.578    -0.911     13.48

------------------------------Saturation indices-------------------------------

  Phase               SI** log IAP   log K(272 K,   1 atm)

  Epsomite         -0.95     -3.17   -2.22  MgSO4:7H2O
  Hexahydrite      -1.46     -3.17   -1.70  MgSO4:6H2O
  Ice(s)            0.00     -0.00   -0.00  H2O
  Kieserite        -3.72     -3.16    0.57  MgSO4:H2O
  Meridianite      -0.83     -3.17   -2.34  MgSO4:11H2O

**For a gas, SI = log10(fugacity). Fugacity = pressure * phi / 1 atm.
  For ideal gases, phi = 1.

Reaction step 6.

Using solution 1.	
Using pure phase assemblage 1.	
Using temperature 1.	

-------------------------------Phase assemblage--------------------------------

                                                      Moles in assemblage
Phase               SI  log IAP  log K(T, P)   Initial       Final       Delta

Anhydrite            Element not present.    0.000e+00           0   0.000e+00
Antarcticite         Element not present.    0.000e+00           0   0.000e+00
Aphthitalite         Element not present.    0.000e+00           0   0.000e+00
Aragonite            Element not present.    0.000e+00           0   0.000e+00
Arcanite             Element not present.    0.000e+00           0   0.000e+00
Bischofite           Element not present.    0.000e+00           0   0.000e+00
Bloedite             Element not present.    0.000e+00           0   0.000e+00
Calcite              Element not present.    0.000e+00           0   0.000e+00
Carnallite           Element not present.    0.000e+00           0   0.000e+00
Dolomite             Element not present.    0.000e+00           0   0.000e+00
Epsomite         -0.86    -3.08     -2.22    0.000e+00           0   0.000e+00
Gypsum               Element not present.    0.000e+00           0   0.000e+00
Halite               Element not present.    0.000e+00           0   0.000e+00
Hexahydrite      -1.37    -3.07     -1.70    0.000e+00           0   0.000e+00
Hydrohalite          Element not present.    0.000e+00           0   0.000e+00
Hydromagnesite       Element not present.    0.000e+00           0   0.000e+00
Ice(s)            0.00    -0.00     -0.00    0.000e+00   5.388e+01   5.388e+01
Ikaite               Element not present.    0.000e+00           0   0.000e+00
Kalicinite           Element not present.    0.000e+00           0   0.000e+00
Kieserite        -3.63    -3.06      0.57    0.000e+00           0   0.000e+00
Landsfordite         Element not present.    0.000e+00           0   0.000e+00
Magnesite            Element not present.    0.000e+00           0   0.000e+00
Meridianite      -0.74    -3.08     -2.34    0.000e+00           0   0.000e+00
MgCl2:12H2O          Element not present.    0.000e+00           0   0.000e+00
MgCl2:8H2O           Element not present.    0.000e+00           0   0.000e+00
Mirabilite           Element not present.    0.000e+00           0   0.000e+00
Na2CO3:7H2O          Element not present.    0.000e+00           0   0.000e+00
Nahcolite            Element not present.    0.000e+00           0   0.000e+00
Natron               Element not present.    0.000e+00           0   0.000e+00
Nesquehonite         Element not present.    0.000e+00           0   0.000e+00
Picromerite          Element not present.    0.000e+00           0   0.000e+00
Sylvite              Element not present.    0.000e+00           0   0.000e+00
Tachyhydrite         Element not present.    0.000e+00           0   0.000e+00
Thenardite           Element not present.    0.000e+00           0   0.000e+00
Trona                Element not present.    0.000e+00           0   0.000e+00
Vaterite             Element not present.    0.000e+00           0   0.000e+00

-----------------------------Solution composition------------------------------

	Elements           Molality       Moles

	Mg                2.822e-01   8.300e-03
	S                 2.822e-01   8.300e-03

----------------------------Description of solution----------------------------

                                       pH  =   8.369      Charge balance
                                       pe  =   4.000      Adjusted to redox equilibrium
      Specific Conductance (µS/cm,  -1°C)  = 14381
                          Density (g/cm³)  =   1.03529
                               Volume (L)  =   0.02938
                        Activity of water  =   0.995
                 Ionic strength (mol/kgw)  =   1.129e+00
                       Mass of water (kg)  =   2.941e-02
                 Total alkalinity (eq/kg)  =   2.651e-06
                         Temperature (°C)  =  -0.50
                  Electrical balance (eq)  =  -7.796e-08
 Percent error, 100*(Cat-|An|)/(Cat+|An|)  =  -0.00
                               Iterations  =  23 (1427 overall)
                         Gamma iterations  =   1
                      Osmotic coefficient  =   0.47193
                         Density of water  =   0.99980
                                  Total H  = 3.265459e+00
                                  Total O  = 1.665929e+00

----------------------------Distribution of species----------------------------

                                                    Unscaled  Unscaled
                                Unscaled       Log       Log       Log    mole V
   Species          Molality    Activity  Molality  Activity     Gamma    cm³/mol

   OH-             5.749e-07   2.556e-07    -6.240    -6.593    -0.352     -4.24
   H+              8.826e-09   4.274e-09    -8.054    -8.369    -0.315      0.00
   H2O             5.551e+01   9.952e-01     1.744    -0.002     0.000     18.02
Mg            2.822e-01
   Mg+2            2.822e-01   2.946e-02    -0.549    -1.531    -0.981    -19.42
   MgOH+           2.085e-06   9.335e-07    -5.681    -6.030    -0.349     (0)  
S(6)          2.822e-01
   SO4-2           2.822e-01   2.946e-02    -0.549    -1.531    -0.981     14.20

------------------------------Saturation indices-------------------------------

  Phase               SI** log IAP   log K(272 K,   1 atm)

  Epsomite         -0.86     -3.08   -2.22  MgSO4:7H2O
  Hexahydrite      -1.37     -3.07   -1.70  MgSO4:6H2O
  Ice(s)            0.00     -0.00   -0.00  H2O
  Kieserite        -3.63     -3.06    0.57  MgSO4:H2O
  Meridianite      -0.74     -3.08   -2.34  MgSO4:11H2O

**For a gas, SI = log10(fugacity). Fugacity = pressure * phi / 1 atm.
  For ideal gases, phi = 1.

Reaction step 7.

Using solution 1.	
Using pure phase assemblage 1.	
Using temperature 1.	

-------------------------------Phase assemblage--------------------------------

                                                      Moles in assemblage
Phase               SI  log IAP  log K(T, P)   Initial       Final       Delta

Anhydrite            Element not present.    0.000e+00           0   0.000e+00
Antarcticite         Element not present.    0.000e+00           0   0.000e+00
Aphthitalite         Element not present.    0.000e+00           0   0.000e+00
Aragonite            Element not present.    0.000e+00           0   0.000e+00
Arcanite             Element not present.    0.000e+00           0   0.000e+00
Bischofite           Element not present.    0.000e+00           0   0.000e+00
Bloedite             Element not present.    0.000e+00           0   0.000e+00
Calcite              Element not present.    0.000e+00           0   0.000e+00
Carnallite           Element not present.    0.000e+00           0   0.000e+00
Dolomite             Element not present.    0.000e+00           0   0.000e+00
Epsomite         -0.79    -3.01     -2.22    0.000e+00           0   0.000e+00
Gypsum               Element not present.    0.000e+00           0   0.000e+00
Halite               Element not present.    0.000e+00           0   0.000e+00
Hexahydrite      -1.30    -3.00     -1.70    0.000e+00           0   0.000e+00
Hydrohalite          Element not present.    0.000e+00           0   0.000e+00
Hydromagnesite       Element not present.    0.000e+00           0   0.000e+00
Ice(s)            0.00    -0.00     -0.00    0.000e+00   5.420e+01   5.420e+01
Ikaite               Element not present.    0.000e+00           0   0.000e+00
Kalicinite           Element not present.    0.000e+00           0   0.000e+00
Kieserite        -3.56    -2.99      0.57    0.000e+00           0   0.000e+00
Landsfordite         Element not present.    0.000e+00           0   0.000e+00
Magnesite            Element not present.    0.000e+00           0   0.000e+00
Meridianite      -0.67    -3.02     -2.35    0.000e+00           0   0.000e+00
MgCl2:12H2O          Element not present.    0.000e+00           0   0.000e+00
MgCl2:8H2O           Element not present.    0.000e+00           0   0.000e+00
Mirabilite           Element not present.    0.000e+00           0   0.000e+00
Na2CO3:7H2O          Element not present.    0.000e+00           0   0.000e+00
Nahcolite            Element not present.    0.000e+00           0   0.000e+00
Natron               Element not present.    0.000e+00           0   0.000e+00
Nesquehonite         Element not present.    0.000e+00           0   0.000e+00
Picromerite          Element not present.    0.000e+00           0   0.000e+00
Sylvite              Element not present.    0.000e+00           0   0.000e+00
Tachyhydrite         Element not present.    0.000e+00           0   0.000e+00
Thenardite           Element not present.    0.000e+00           0   0.000e+00
Trona                Element not present.    0.000e+00           0   0.000e+00
Vaterite             Element not present.    0.000e+00           0   0.000e+00

-----------------------------Solution composition------------------------------

	Elements           Molality       Moles

	Mg                3.516e-01   8.300e-03
	S                 3.516e-01   8.300e-03

----------------------------Description of solution----------------------------

                                       pH  =   8.413      Charge balance
                                       pe  =   4.000      Adjusted to redox equilibrium
      Specific Conductance (µS/cm,  -1°C)  = 16165
                          Density (g/cm³)  =   1.04374
                               Volume (L)  =   0.02357
                        Activity of water  =   0.994
                 Ionic strength (mol/kgw)  =   1.407e+00
                       Mass of water (kg)  =   2.360e-02
                 Total alkalinity (eq/kg)  =   3.303e-06
                         Temperature (°C)  =  -0.60
                  Electrical balance (eq)  =  -7.796e-08
 Percent error, 100*(Cat-|An|)/(Cat+|An|)  =  -0.00
                               Iterations  =  24 (1428 overall)
                         Gamma iterations  =   1
                      Osmotic coefficient  =   0.45471
                         Density of water  =   0.99980
                                  Total H  = 2.620482e+00
                                  Total O  = 1.343441e+00

----------------------------Distribution of species----------------------------

                                                    Unscaled  Unscaled
                                Unscaled       Log       Log       Log    mole V
   Species          Molality    Activity  Molality  Activity     Gamma    cm³/mol

   OH-             6.705e-07   2.796e-07    -6.174    -6.553    -0.380     -3.87
   H+              8.317e-09   3.864e-09    -8.080    -8.413    -0.333      0.00
   H2O             5.551e+01   9.943e-01     1.744    -0.003     0.000     18.02
Mg            3.516e-01
   Mg+2            3.516e-01   3.207e-02    -0.454    -1.494    -1.040    -19.30
   MgOH+           2.641e-06   1.111e-06    -5.578    -5.954    -0.376     (0)  
S(6)          3.516e-01
   SO4-2           3.516e-01   3.207e-02    -0.454    -1.494    -1.040     14.86

------------------------------Saturation indices-------------------------------

  Phase               SI** log IAP   log K(272 K,   1 atm)

  Epsomite         -0.79     -3.01   -2.22  MgSO4:7H2O
  Hexahydrite      -1.30     -3.00   -1.70  MgSO4:6H2O
  Ice(s)            0.00     -0.00   -0.00  H2O
  Kieserite        -3.56     -2.99    0.57  MgSO4:H2O
  Meridianite      -0.67     -3.02   -2.35  MgSO4:11H2O

**For a gas, SI = log10(fugacity). Fugacity = pressure * phi / 1 atm.
  For ideal gases, phi = 1.

Reaction step 8.

Using solution 1.	
Using pure phase assemblage 1.	
Using temperature 1.	

-------------------------------Phase assemblage--------------------------------

                                                      Moles in assemblage
Phase               SI  log IAP  log K(T, P)   Initial       Final       Delta

Anhydrite            Element not present.    0.000e+00           0   0.000e+00
Antarcticite         Element not present.    0.000e+00           0   0.000e+00
Aphthitalite         Element not present.    0.000e+00           0   0.000e+00
Aragonite            Element not present.    0.000e+00           0   0.000e+00
Arcanite             Element not present.    0.000e+00           0   0.000e+00
Bischofite           Element not present.    0.000e+00           0   0.000e+00
Bloedite             Element not present.    0.000e+00           0   0.000e+00
Calcite              Element not present.    0.000e+00           0   0.000e+00
Carnallite           Element not present.    0.000e+00           0   0.000e+00
Dolomite             Element not present.    0.000e+00           0   0.000e+00
Epsomite         -0.73    -2.95     -2.22    0.000e+00           0   0.000e+00
Gypsum               Element not present.    0.000e+00           0   0.000e+00
Halite               Element not present.    0.000e+00           0   0.000e+00
Hexahydrite      -1.24    -2.95     -1.70    0.000e+00           0   0.000e+00
Hydrohalite          Element not present.    0.000e+00           0   0.000e+00
Hydromagnesite       Element not present.    0.000e+00           0   0.000e+00
Ice(s)            0.00    -0.00     -0.00    0.000e+00   5.442e+01   5.442e+01
Ikaite               Element not present.    0.000e+00           0   0.000e+00
Kalicinite           Element not present.    0.000e+00           0   0.000e+00
Kieserite        -3.51    -2.93      0.58    0.000e+00           0   0.000e+00
Landsfordite         Element not present.    0.000e+00           0   0.000e+00
Magnesite            Element not present.    0.000e+00           0   0.000e+00
Meridianite      -0.61    -2.96     -2.35    0.000e+00           0   0.000e+00
MgCl2:12H2O          Element not present.    0.000e+00           0   0.000e+00
MgCl2:8H2O           Element not present.    0.000e+00           0   0.000e+00
Mirabilite           Element not present.    0.000e+00           0   0.000e+00
Na2CO3:7H2O          Element not present.    0.000e+00           0   0.000e+00
Nahcolite            Element not present.    0.000e+00           0   0.000e+00
Natron               Element not present.    0.000e+00           0   0.000e+00
Nesquehonite         Element not present.    0.000e+00           0   0.000e+00
Picromerite          Element not present.    0.000e+00           0   0.000e+00
Sylvite              Element not present.    0.000e+00           0   0.000e+00
Tachyhydrite         Element not present.    0.000e+00           0   0.000e+00
Thenardite           Element not present.    0.000e+00           0   0.000e+00
Trona                Element not present.    0.000e+00           0   0.000e+00
Vaterite             Element not present.    0.000e+00           0   0.000e+00

-----------------------------Solution composition------------------------------

	Elements           Molality       Moles

	Mg                4.229e-01   8.300e-03
	S                 4.229e-01   8.300e-03

----------------------------Description of solution----------------------------

                                       pH  =   8.450      Charge balance
                                       pe  =   4.000      Adjusted to redox equilibrium
      Specific Conductance (µS/cm,  -1°C)  = 17631
                          Density (g/cm³)  =   1.05233
                               Volume (L)  =   0.01960
                        Activity of water  =   0.993
                 Ionic strength (mol/kgw)  =   1.691e+00
                       Mass of water (kg)  =   1.963e-02
                 Total alkalinity (eq/kg)  =   3.972e-06
                         Temperature (°C)  =  -0.70
                  Electrical balance (eq)  =  -7.796e-08
 Percent error, 100*(Cat-|An|)/(Cat+|An|)  =  -0.00
                               Iterations  =  25 (1429 overall)
                         Gamma iterations  =   1
                      Osmotic coefficient  =   0.44132
                         Density of water  =   0.99979
                                  Total H  = 2.179070e+00
                                  Total O  = 1.122735e+00

----------------------------Distribution of species----------------------------

                                                    Unscaled  Unscaled
                                Unscaled       Log       Log       Log    mole V
   Species          Molality    Activity  Molality  Activity     Gamma    cm³/mol

   OH-             7.637e-07   3.010e-07    -6.117    -6.521    -0.404     -3.49
   H+              7.895e-09   3.550e-09    -8.103    -8.450    -0.347      0.00
   H2O             5.551e+01   9.933e-01     1.744    -0.003     0.000     18.02
Mg            4.229e-01
   Mg+2            4.229e-01   3.437e-02    -0.374    -1.464    -1.090    -19.18
   MgOH+           3.216e-06   1.281e-06    -5.493    -5.892    -0.400     (0)  
S(6)          4.229e-01
   SO4-2           4.229e-01   3.437e-02    -0.374    -1.464    -1.090     15.46

------------------------------Saturation indices-------------------------------

  Phase               SI** log IAP   log K(272 K,   1 atm)

  Epsomite         -0.73     -2.95   -2.22  MgSO4:7H2O
  Hexahydrite      -1.24     -2.95   -1.70  MgSO4:6H2O
  Ice(s)            0.00     -0.00   -0.00  H2O
  Kieserite        -3.51     -2.93    0.58  MgSO4:H2O
  Meridianite      -0.61     -2.96   -2.35  MgSO4:11H2O

**For a gas, SI = log10(fugacity). Fugacity = pressure * phi / 1 atm.
  For ideal gases, phi = 1.

Reaction step 9.

Using solution 1.	
Using pure phase assemblage 1.	
Using temperature 1.	

-------------------------------Phase assemblage--------------------------------

                                                      Moles in assemblage
Phase               SI  log IAP  log K(T, P)   Initial       Final       Delta

Anhydrite            Element not present.    0.000e+00           0   0.000e+00
Antarcticite         Element not present.    0.000e+00           0   0.000e+00
Aphthitalite         Element not present.    0.000e+00           0   0.000e+00
Aragonite            Element not present.    0.000e+00           0   0.000e+00
Arcanite             Element not present.    0.000e+00           0   0.000e+00
Bischofite           Element not present.    0.000e+00           0   0.000e+00
Bloedite             Element not present.    0.000e+00           0   0.000e+00
Calcite              Element not present.    0.000e+00           0   0.000e+00
Carnallite           Element not present.    0.000e+00           0   0.000e+00
Dolomite             Element not present.    0.000e+00           0   0.000e+00
Epsomite         -0.68    -2.90     -2.22    0.000e+00           0   0.000e+00
Gypsum               Element not present.    0.000e+00           0   0.000e+00
Halite               Element not present.    0.000e+00           0   0.000e+00
Hexahydrite      -1.19    -2.90     -1.70    0.000e+00           0   0.000e+00
Hydrohalite          Element not present.    0.000e+00           0   0.000e+00
Hydromagnesite       Element not present.    0.000e+00           0   0.000e+00
Ice(s)            0.00    -0.00     -0.00    0.000e+00   5.458e+01   5.458e+01
Ikaite               Element not present.    0.000e+00           0   0.000e+00
Kalicinite           Element not present.    0.000e+00           0   0.000e+00
Kieserite        -3.46    -2.88      0.58    0.000e+00           0   0.000e+00
Landsfordite         Element not present.    0.000e+00           0   0.000e+00
Magnesite            Element not present.    0.000e+00           0   0.000e+00
Meridianite      -0.56    -2.91     -2.36    0.000e+00           0   0.000e+00
MgCl2:12H2O          Element not present.    0.000e+00           0   0.000e+00
MgCl2:8H2O           Element not present.    0.000e+00           0   0.000e+00
Mirabilite           Element not present.    0.000e+00           0   0.000e+00
Na2CO3:7H2O          Element not present.    0.000e+00           0   0.000e+00
Nahcolite            Element not present.    0.000e+00           0   0.000e+00
Natron               Element not present.    0.000e+00           0   0.000e+00
Nesquehonite         Element not present.    0.000e+00           0   0.000e+00
Picromerite          Element not present.    0.000e+00           0   0.000e+00
Sylvite              Element not present.    0.000e+00           0   0.000e+00
Tachyhydrite         Element not present.    0.000e+00           0   0.000e+00
Thenardite           Element not present.    0.000e+00           0   0.000e+00
Trona                Element not present.    0.000e+00           0   0.000e+00
Vaterite             Element not present.    0.000e+00           0   0.000e+00

-----------------------------Solution composition------------------------------

	Elements           Molality       Moles

	Mg                4.948e-01   8.300e-03
	S                 4.948e-01   8.300e-03

----------------------------Description of solution----------------------------

                                       pH  =   8.481      Charge balance
                                       pe  =   4.000      Adjusted to redox equilibrium
      Specific Conductance (µS/cm,  -1°C)  = 18812
                          Density (g/cm³)  =   1.06093
                               Volume (L)  =   0.01675
                        Activity of water  =   0.992
                 Ionic strength (mol/kgw)  =   1.979e+00
                       Mass of water (kg)  =   1.677e-02
                 Total alkalinity (eq/kg)  =   4.648e-06
                         Temperature (°C)  =  -0.80
                  Electrical balance (eq)  =  -7.796e-08
 Percent error, 100*(Cat-|An|)/(Cat+|An|)  =  -0.00
                               Iterations  =  26 (1430 overall)
                         Gamma iterations  =   1
                      Osmotic coefficient  =   0.43114
                         Density of water  =   0.99978
                                  Total H  = 1.862099e+00
                                  Total O  = 9.642498e-01

----------------------------Distribution of species----------------------------

                                                    Unscaled  Unscaled
                                Unscaled       Log       Log       Log    mole V
   Species          Molality    Activity  Molality  Activity     Gamma    cm³/mol

   OH-             8.536e-07   3.200e-07    -6.069    -6.495    -0.426     -3.11
   H+              7.532e-09   3.302e-09    -8.123    -8.481    -0.358      0.00
   H2O             5.551e+01   9.923e-01     1.744    -0.003     0.000     18.02
Mg            4.948e-01
   Mg+2            4.948e-01   3.643e-02    -0.306    -1.439    -1.133    -19.06
   MgOH+           3.802e-06   1.444e-06    -5.420    -5.840    -0.421     (0)  
S(6)          4.948e-01
   SO4-2           4.948e-01   3.643e-02    -0.306    -1.439    -1.133     16.02

------------------------------Saturation indices-------------------------------

  Phase               SI** log IAP   log K(272 K,   1 atm)

  Epsomite         -0.68     -2.90   -2.22  MgSO4:7H2O
  Hexahydrite      -1.19     -2.90   -1.70  MgSO4:6H2O
  Ice(s)            0.00     -0.00   -0.00  H2O
  Kieserite        -3.46     -2.88    0.58  MgSO4:H2O
  Meridianite      -0.56     -2.91   -2.36  MgSO4:11H2O

**For a gas, SI = log10(fugacity). Fugacity = pressure * phi / 1 atm.
  For ideal gases, phi = 1.

Reaction step 10.

Using solution 1.	
Using pure phase assemblage 1.	
Using temperature 1.	

-------------------------------Phase assemblage--------------------------------

                                                      Moles in assemblage
Phase               SI  log IAP  log K(T, P)   Initial       Final       Delta

Anhydrite            Element not present.    0.000e+00           0   0.000e+00
Antarcticite         Element not present.    0.000e+00           0   0.000e+00
Aphthitalite         Element not present.    0.000e+00           0   0.000e+00
Aragonite            Element not present.    0.000e+00           0   0.000e+00
Arcanite             Element not present.    0.000e+00           0   0.000e+00
Bischofite           Element not present.    0.000e+00           0   0.000e+00
Bloedite             Element not present.    0.000e+00           0   0.000e+00
Calcite              Element not present.    0.000e+00           0   0.000e+00
Carnallite           Element not present.    0.000e+00           0   0.000e+00
Dolomite             Element not present.    0.000e+00           0   0.000e+00
Epsomite         -0.64    -2.86     -2.22    0.000e+00           0   0.000e+00
Gypsum               Element not present.    0.000e+00           0   0.000e+00
Halite               Element not present.    0.000e+00           0   0.000e+00
Hexahydrite      -1.15    -2.86     -1.70    0.000e+00           0   0.000e+00
Hydrohalite          Element not present.    0.000e+00           0   0.000e+00
Hydromagnesite       Element not present.    0.000e+00           0   0.000e+00
Ice(s)            0.00    -0.00     -0.00    0.000e+00   5.470e+01   5.470e+01
Ikaite               Element not present.    0.000e+00           0   0.000e+00
Kalicinite           Element not present.    0.000e+00           0   0.000e+00
Kieserite        -3.43    -2.84      0.59    0.000e+00           0   0.000e+00
Landsfordite         Element not present.    0.000e+00           0   0.000e+00
Magnesite            Element not present.    0.000e+00           0   0.000e+00
Meridianite      -0.51    -2.87     -2.36    0.000e+00           0   0.000e+00
MgCl2:12H2O          Element not present.    0.000e+00           0   0.000e+00
MgCl2:8H2O           Element not present.    0.000e+00           0   0.000e+00
Mirabilite           Element not present.    0.000e+00           0   0.000e+00
Na2CO3:7H2O          Element not present.    0.000e+00           0   0.000e+00
Nahcolite            Element not present.    0.000e+00           0   0.000e+00
Natron               Element not present.    0.000e+00           0   0.000e+00
Nesquehonite         Element not present.    0.000e+00           0   0.000e+00
Picromerite          Element not present.    0.000e+00           0   0.000e+00
Sylvite              Element not present.    0.000e+00           0   0.000e+00
Tachyhydrite         Element not present.    0.000e+00           0   0.000e+00
Thenardite           Element not present.    0.000e+00           0   0.000e+00
Trona                Element not present.    0.000e+00           0   0.000e+00
Vaterite             Element not present.    0.000e+00           0   0.000e+00

-----------------------------Solution composition------------------------------

	Elements           Molality       Moles

	Mg                5.665e-01   8.300e-03
	S                 5.665e-01   8.300e-03

----------------------------Description of solution----------------------------

                                       pH  =   8.508      Charge balance
                                       pe  =   4.000      Adjusted to redox equilibrium
      Specific Conductance (µS/cm,  -1°C)  = 19742
                          Density (g/cm³)  =   1.06942
                               Volume (L)  =   0.01463
                        Activity of water  =   0.991
                 Ionic strength (mol/kgw)  =   2.266e+00
                       Mass of water (kg)  =   1.465e-02
                 Total alkalinity (eq/kg)  =   5.321e-06
                         Temperature (°C)  =  -0.90
                  Electrical balance (eq)  =  -7.796e-08
 Percent error, 100*(Cat-|An|)/(Cat+|An|)  =  -0.00
                               Iterations  =  27 (1431 overall)
                         Gamma iterations  =   1
                      Osmotic coefficient  =   0.42378
                         Density of water  =   0.99977
                                  Total H  = 1.626506e+00
                                  Total O  = 8.464530e-01

----------------------------Distribution of species----------------------------

                                                    Unscaled  Unscaled
                                Unscaled       Log       Log       Log    mole V
   Species          Molality    Activity  Molality  Activity     Gamma    cm³/mol

   OH-             9.392e-07   3.369e-07    -6.027    -6.473    -0.445     -2.74
   H+              7.213e-09   3.103e-09    -8.142    -8.508    -0.366      0.00
   H2O             5.551e+01   9.914e-01     1.744    -0.004     0.000     18.02
Mg            5.665e-01
   Mg+2            5.665e-01   3.831e-02    -0.247    -1.417    -1.170    -18.96
   MgOH+           4.389e-06   1.598e-06    -5.358    -5.797    -0.439     (0)  
S(6)          5.665e-01
   SO4-2           5.665e-01   3.831e-02    -0.247    -1.417    -1.170     16.54

------------------------------Saturation indices-------------------------------

  Phase               SI** log IAP   log K(272 K,   1 atm)

  Epsomite         -0.64     -2.86   -2.22  MgSO4:7H2O
  Hexahydrite      -1.15     -2.86   -1.70  MgSO4:6H2O
  Ice(s)            0.00     -0.00   -0.00  H2O
  Kieserite        -3.43     -2.84    0.59  MgSO4:H2O
  Meridianite      -0.51     -2.87   -2.36  MgSO4:11H2O

**For a gas, SI = log10(fugacity). Fugacity = pressure * phi / 1 atm.
  For ideal gases, phi = 1.

Reaction step 11.

Using solution 1.	
Using pure phase assemblage 1.	
Using temperature 1.	

-------------------------------Phase assemblage--------------------------------

                                                      Moles in assemblage
Phase               SI  log IAP  log K(T, P)   Initial       Final       Delta

Anhydrite            Element not present.    0.000e+00           0   0.000e+00
Antarcticite         Element not present.    0.000e+00           0   0.000e+00
Aphthitalite         Element not present.    0.000e+00           0   0.000e+00
Aragonite            Element not present.    0.000e+00           0   0.000e+00
Arcanite             Element not present.    0.000e+00           0   0.000e+00
Bischofite           Element not present.    0.000e+00           0   0.000e+00
Bloedite             Element not present.    0.000e+00           0   0.000e+00
Calcite              Element not present.    0.000e+00           0   0.000e+00
Carnallite           Element not present.    0.000e+00           0   0.000e+00
Dolomite             Element not present.    0.000e+00           0   0.000e+00
Epsomite         -0.60    -2.82     -2.23    0.000e+00           0   0.000e+00
Gypsum               Element not present.    0.000e+00           0   0.000e+00
Halite               Element not present.    0.000e+00           0   0.000e+00
Hexahydrite      -1.12    -2.82     -1.70    0.000e+00           0   0.000e+00
Hydrohalite          Element not present.    0.000e+00           0   0.000e+00
Hydromagnesite       Element not present.    0.000e+00           0   0.000e+00
Ice(s)            0.00    -0.00     -0.00    0.000e+00   5.479e+01   5.479e+01
Ikaite               Element not present.    0.000e+00           0   0.000e+00
Kalicinite           Element not present.    0.000e+00           0   0.000e+00
Kieserite        -3.39    -2.80      0.59    0.000e+00           0   0.000e+00
Landsfordite         Element not present.    0.000e+00           0   0.000e+00
Magnesite            Element not present.    0.000e+00           0   0.000e+00
Meridianite      -0.48    -2.84     -2.36    0.000e+00           0   0.000e+00
MgCl2:12H2O          Element not present.    0.000e+00           0   0.000e+00
MgCl2:8H2O           Element not present.    0.000e+00           0   0.000e+00
Mirabilite           Element not present.    0.000e+00           0   0.000e+00
Na2CO3:7H2O          Element not present.    0.000e+00           0   0.000e+00
Nahcolite            Element not present.    0.000e+00           0   0.000e+00
Natron               Element not present.    0.000e+00           0   0.000e+00
Nesquehonite         Element not present.    0.000e+00           0   0.000e+00
Picromerite          Element not present.    0.000e+00           0   0.000e+00
Sylvite              Element not present.    0.000e+00           0   0.000e+00
Tachyhydrite         Element not present.    0.000e+00           0   0.000e+00
Thenardite           Element not present.    0.000e+00           0   0.000e+00
Trona                Element not present.    0.000e+00           0   0.000e+00
Vaterite             Element not present.    0.000e+00           0   0.000e+00

-----------------------------Solution composition------------------------------

	Elements           Molality       Moles

	Mg                6.369e-01   8.300e-03
	S                 6.369e-01   8.300e-03

----------------------------Description of solution----------------------------

                                       pH  =   8.532      Charge balance
                                       pe  =   4.000      Adjusted to redox equilibrium
      Specific Conductance (µS/cm,  -1°C)  = 20456
                          Density (g/cm³)  =   1.07769
                               Volume (L)  =   0.01302
                        Activity of water  =   0.990
                 Ionic strength (mol/kgw)  =   2.548e+00
                       Mass of water (kg)  =   1.303e-02
                 Total alkalinity (eq/kg)  =   5.983e-06
                         Temperature (°C)  =  -1.00
                  Electrical balance (eq)  =  -7.796e-08
 Percent error, 100*(Cat-|An|)/(Cat+|An|)  =  -0.00
                               Iterations  =  28 (1432 overall)
                         Gamma iterations  =   1
                      Osmotic coefficient  =   0.41892
                         Density of water  =   0.99976
                                  Total H  = 1.446699e+00
[...]
                               Iterations  = 124 (1528 overall)
                         Gamma iterations  =   1
                      Osmotic coefficient  =   0.29123
                         Density of water  =   0.99193
                                  Total H  = 4.743550e-07
                                  Total O  = 5.578527e-07

----------------------------Distribution of species----------------------------

                                                    Unscaled  Unscaled
                                Unscaled       Log       Log       Log    mole V
   Species          Molality    Activity  Molality  Activity     Gamma    cm³/mol

   OH-             2.112e+00   1.135e-01     0.325    -0.945    -1.270     45.94
   H+              7.585e-24   6.395e-16   -23.120   -15.194     7.926      0.00
   H2O             5.551e+01   8.041e-01     1.744    -0.095     0.000     18.16
Mg            1.972e+01
   MgOH+           1.972e+01   3.813e+00     1.295     0.581    -0.714     (0)  
   Mg+2            7.576e-16   2.676e-01   -15.121    -0.573    14.548    -32.22
S(6)          1.972e+01
   SO4-2           1.972e+01   2.402e-02     1.295    -1.619    -2.914     34.02

------------------------------Saturation indices-------------------------------

  Phase               SI** log IAP   log K(250 K,   1 atm)

  Epsomite         -0.29     -2.85   -2.56  MgSO4:7H2O
  Hexahydrite      -0.99     -2.76   -1.77  MgSO4:6H2O
  Ice(s)            0.00     -0.09   -0.09  H2O
  Kieserite        -4.13     -2.29    1.85  MgSO4:H2O
  Meridianite      -0.00     -3.23   -3.23  MgSO4:11H2O

**For a gas, SI = log10(fugacity). Fugacity = pressure * phi / 1 atm.
  For ideal gases, phi = 1.

Reaction step 226.

Using solution 1.	
Using pure phase assemblage 1.	
Using temperature 1.	

-------------------------------Phase assemblage--------------------------------

                                                      Moles in assemblage
Phase               SI  log IAP  log K(T, P)   Initial       Final       Delta

Anhydrite            Element not present.    0.000e+00           0   0.000e+00
Antarcticite         Element not present.    0.000e+00           0   0.000e+00
Aphthitalite         Element not present.    0.000e+00           0   0.000e+00
Aragonite            Element not present.    0.000e+00           0   0.000e+00
Arcanite             Element not present.    0.000e+00           0   0.000e+00
Bischofite           Element not present.    0.000e+00           0   0.000e+00
Bloedite             Element not present.    0.000e+00           0   0.000e+00
Calcite              Element not present.    0.000e+00           0   0.000e+00
Carnallite           Element not present.    0.000e+00           0   0.000e+00
Dolomite             Element not present.    0.000e+00           0   0.000e+00
Epsomite         -0.29    -2.86     -2.56    0.000e+00           0   0.000e+00
Gypsum               Element not present.    0.000e+00           0   0.000e+00
Halite               Element not present.    0.000e+00           0   0.000e+00
Hexahydrite      -0.99    -2.76     -1.77    0.000e+00           0   0.000e+00
Hydrohalite          Element not present.    0.000e+00           0   0.000e+00
Hydromagnesite       Element not present.    0.000e+00           0   0.000e+00
Ice(s)            0.00    -0.10     -0.10    0.000e+00   5.542e+01   5.542e+01
Ikaite               Element not present.    0.000e+00           0   0.000e+00
Kalicinite           Element not present.    0.000e+00           0   0.000e+00
Kieserite        -4.14    -2.29      1.85    0.000e+00           0   0.000e+00
Landsfordite         Element not present.    0.000e+00           0   0.000e+00
Magnesite            Element not present.    0.000e+00           0   0.000e+00
Meridianite       0.00    -3.24     -3.24    0.000e+00   8.300e-03   8.300e-03
MgCl2:12H2O          Element not present.    0.000e+00           0   0.000e+00
MgCl2:8H2O           Element not present.    0.000e+00           0   0.000e+00
Mirabilite           Element not present.    0.000e+00           0   0.000e+00
Na2CO3:7H2O          Element not present.    0.000e+00           0   0.000e+00
Nahcolite            Element not present.    0.000e+00           0   0.000e+00
Natron               Element not present.    0.000e+00           0   0.000e+00
Nesquehonite         Element not present.    0.000e+00           0   0.000e+00
Picromerite          Element not present.    0.000e+00           0   0.000e+00
Sylvite              Element not present.    0.000e+00           0   0.000e+00
Tachyhydrite         Element not present.    0.000e+00           0   0.000e+00
Thenardite           Element not present.    0.000e+00           0   0.000e+00
Trona                Element not present.    0.000e+00           0   0.000e+00
Vaterite             Element not present.    0.000e+00           0   0.000e+00

-----------------------------Solution composition------------------------------

	Elements           Molality       Moles

	Mg                1.984e+01   7.041e-08
	S                 1.984e+01   7.041e-08

----------------------------Description of solution----------------------------

                                       pH  =  15.201      Charge balance
                                       pe  =   4.000      Adjusted to redox equilibrium
      Specific Conductance (µS/cm, -23°C)  = 2614
                          Density (g/cm³)  =   2.11126   (Program limit)
                               Volume (L)  =   0.00000
                        Activity of water  =   0.803
                 Ionic strength (mol/kgw)  =   5.065e+01
                       Mass of water (kg)  =   3.550e-09
                 Total alkalinity (eq/kg)  =   2.196e+01
                         Temperature (°C)  = -22.50
                  Electrical balance (eq)  =  -7.796e-08
 Percent error, 100*(Cat-|An|)/(Cat+|An|)  = -35.64
                               Iterations  = 125 (1529 overall)
                         Gamma iterations  =   1
                      Osmotic coefficient  =   0.29085
                         Density of water  =   0.99185
                                  Total H  = 4.720276e-07
                                  Total O  = 5.566303e-07

----------------------------Distribution of species----------------------------

                                                    Unscaled  Unscaled
                                Unscaled       Log       Log       Log    mole V
   Species          Molality    Activity  Molality  Activity     Gamma    cm³/mol

   OH-             2.128e+00   1.137e-01     0.328    -0.944    -1.272     46.23
   H+              5.992e-24   6.298e-16   -23.222   -15.201     8.022      0.00
   H2O             5.551e+01   8.033e-01     1.744    -0.095     0.000     18.16
Mg            1.984e+01
   MgOH+           1.984e+01   3.829e+00     1.297     0.583    -0.714     (0)  
   Mg+2            4.731e-16   2.682e-01   -15.325    -0.572    14.754    -32.59
S(6)          1.984e+01
   SO4-2           1.984e+01   2.400e-02     1.297    -1.620    -2.917     34.02

------------------------------Saturation indices-------------------------------

  Phase               SI** log IAP   log K(250 K,   1 atm)

  Epsomite         -0.29     -2.86   -2.56  MgSO4:7H2O
  Hexahydrite      -0.99     -2.76   -1.77  MgSO4:6H2O
  Ice(s)            0.00     -0.10   -0.10  H2O
  Kieserite        -4.14     -2.29    1.85  MgSO4:H2O
  Meridianite       0.00     -3.24   -3.24  MgSO4:11H2O

**For a gas, SI = log10(fugacity). Fugacity = pressure * phi / 1 atm.
  For ideal gases, phi = 1.

Reaction step 227.

Using solution 1.	
Using pure phase assemblage 1.	
Using temperature 1.	

-------------------------------Phase assemblage--------------------------------

                                                      Moles in assemblage
Phase               SI  log IAP  log K(T, P)   Initial       Final       Delta

Anhydrite            Element not present.    0.000e+00           0   0.000e+00
Antarcticite         Element not present.    0.000e+00           0   0.000e+00
Aphthitalite         Element not present.    0.000e+00           0   0.000e+00
Aragonite            Element not present.    0.000e+00           0   0.000e+00
Arcanite             Element not present.    0.000e+00           0   0.000e+00
Bischofite           Element not present.    0.000e+00           0   0.000e+00
Bloedite             Element not present.    0.000e+00           0   0.000e+00
Calcite              Element not present.    0.000e+00           0   0.000e+00
Carnallite           Element not present.    0.000e+00           0   0.000e+00
Dolomite             Element not present.    0.000e+00           0   0.000e+00
Epsomite         -0.29    -2.86     -2.57    0.000e+00           0   0.000e+00
Gypsum               Element not present.    0.000e+00           0   0.000e+00
Halite               Element not present.    0.000e+00           0   0.000e+00
Hexahydrite      -1.00    -2.76     -1.77    0.000e+00           0   0.000e+00
Hydrohalite          Element not present.    0.000e+00           0   0.000e+00
Hydromagnesite       Element not present.    0.000e+00           0   0.000e+00
Ice(s)            0.00    -0.10     -0.10    0.000e+00   5.542e+01   5.542e+01
Ikaite               Element not present.    0.000e+00           0   0.000e+00
Kalicinite           Element not present.    0.000e+00           0   0.000e+00
Kieserite        -4.15    -2.29      1.86    0.000e+00           0   0.000e+00
Landsfordite         Element not present.    0.000e+00           0   0.000e+00
Magnesite            Element not present.    0.000e+00           0   0.000e+00
Meridianite       0.00    -3.24     -3.24    0.000e+00   8.300e-03   8.300e-03
MgCl2:12H2O          Element not present.    0.000e+00           0   0.000e+00
MgCl2:8H2O           Element not present.    0.000e+00           0   0.000e+00
Mirabilite           Element not present.    0.000e+00           0   0.000e+00
Na2CO3:7H2O          Element not present.    0.000e+00           0   0.000e+00
Nahcolite            Element not present.    0.000e+00           0   0.000e+00
Natron               Element not present.    0.000e+00           0   0.000e+00
Nesquehonite         Element not present.    0.000e+00           0   0.000e+00
Picromerite          Element not present.    0.000e+00           0   0.000e+00
Sylvite              Element not present.    0.000e+00           0   0.000e+00
Tachyhydrite         Element not present.    0.000e+00           0   0.000e+00
Thenardite           Element not present.    0.000e+00           0   0.000e+00
Trona                Element not present.    0.000e+00           0   0.000e+00
Vaterite             Element not present.    0.000e+00           0   0.000e+00

-----------------------------Solution composition------------------------------

	Elements           Molality       Moles

	Mg                1.995e+01   7.039e-08
	S                 1.995e+01   7.039e-08

----------------------------Description of solution----------------------------

                                       pH  =  15.207      Charge balance
                                       pe  =   4.000      Adjusted to redox equilibrium
      Specific Conductance (µS/cm, -23°C)  = 2582
                          Density (g/cm³)  =   2.11414   (Program limit)
                               Volume (L)  =   0.00000
                        Activity of water  =   0.803
                 Ionic strength (mol/kgw)  =   5.094e+01
                       Mass of water (kg)  =   3.529e-09
                 Total alkalinity (eq/kg)  =   2.209e+01
                         Temperature (°C)  = -22.60
                  Electrical balance (eq)  =  -7.796e-08
 Percent error, 100*(Cat-|An|)/(Cat+|An|)  = -35.64
                               Iterations  = 130 (1534 overall)
                         Gamma iterations  =   1
                      Osmotic coefficient  =   0.29047
                         Density of water  =   0.99177
                                  Total H  = 4.697207e-07
                                  Total O  = 5.554179e-07

----------------------------Distribution of species----------------------------

                                                    Unscaled  Unscaled
                                Unscaled       Log       Log       Log    mole V
   Species          Molality    Activity  Molality  Activity     Gamma    cm³/mol

   OH-             2.145e+00   1.138e-01     0.331    -0.944    -1.275     46.48
   H+              4.725e-24   6.203e-16   -23.326   -15.207     8.118      0.00
   H2O             5.551e+01   8.025e-01     1.744    -0.096     0.000     18.17
Mg            1.995e+01
   MgOH+           1.995e+01   3.845e+00     1.300     0.585    -0.715     (0)  
   Mg+2            2.941e-16   2.688e-01   -15.532    -0.571    14.961    -32.96
S(6)          1.995e+01
   SO4-2           1.995e+01   2.398e-02     1.300    -1.620    -2.920     34.01

------------------------------Saturation indices-------------------------------

  Phase               SI** log IAP   log K(250 K,   1 atm)

  Epsomite         -0.29     -2.86   -2.57  MgSO4:7H2O
  Hexahydrite      -1.00     -2.76   -1.77  MgSO4:6H2O
  Ice(s)            0.00     -0.10   -0.10  H2O
  Kieserite        -4.15     -2.29    1.86  MgSO4:H2O
  Meridianite       0.00     -3.24   -3.24  MgSO4:11H2O

**For a gas, SI = log10(fugacity). Fugacity = pressure * phi / 1 atm.
  For ideal gases, phi = 1.

Reaction step 228.

ERROR:               Ice(s) Pure phase has not converged. 	Residual: -2.207445e-01

Using solution 1.	
Using pure phase assemblage 1.	
Using temperature 1.	

-------------------------------Phase assemblage--------------------------------

                                                      Moles in assemblage
Phase               SI  log IAP  log K(T, P)   Initial       Final       Delta

Anhydrite            Element not present.    0.000e+00           0   0.000e+00
Antarcticite         Element not present.    0.000e+00           0   0.000e+00
Aphthitalite         Element not present.    0.000e+00           0   0.000e+00
Aragonite            Element not present.    0.000e+00           0   0.000e+00
Arcanite             Element not present.    0.000e+00           0   0.000e+00
Bischofite           Element not present.    0.000e+00           0   0.000e+00
Bloedite             Element not present.    0.000e+00           0   0.000e+00
Calcite              Element not present.    0.000e+00           0   0.000e+00
Carnallite           Element not present.    0.000e+00           0   0.000e+00
Dolomite             Element not present.    0.000e+00           0   0.000e+00
Epsomite         -1.60    -4.16     -2.57    0.000e+00           0   0.000e+00
Gypsum               Element not present.    0.000e+00           0   0.000e+00
Halite               Element not present.    0.000e+00           0   0.000e+00
Hexahydrite      -2.39    -4.16     -1.77    0.000e+00           0   0.000e+00
Hydrohalite          Element not present.    0.000e+00           0   0.000e+00
Hydromagnesite       Element not present.    0.000e+00           0   0.000e+00
Ice(s)            0.10    -0.00     -0.10    0.000e+00           0   0.000e+00
Ikaite               Element not present.    0.000e+00           0   0.000e+00
Kalicinite           Element not present.    0.000e+00           0   0.000e+00
Kieserite        -6.03    -4.16      1.87    0.000e+00           0   0.000e+00
Landsfordite         Element not present.    0.000e+00           0   0.000e+00
Magnesite            Element not present.    0.000e+00           0   0.000e+00
Meridianite      -0.92    -4.16     -3.25    0.000e+00           0   0.000e+00
MgCl2:12H2O          Element not present.    0.000e+00           0   0.000e+00
MgCl2:8H2O           Element not present.    0.000e+00           0   0.000e+00
Mirabilite           Element not present.    0.000e+00           0   0.000e+00
Na2CO3:7H2O          Element not present.    0.000e+00           0   0.000e+00
Nahcolite            Element not present.    0.000e+00           0   0.000e+00
Natron               Element not present.    0.000e+00           0   0.000e+00
Nesquehonite         Element not present.    0.000e+00           0   0.000e+00
Picromerite          Element not present.    0.000e+00           0   0.000e+00
Sylvite              Element not present.    0.000e+00           0   0.000e+00
Tachyhydrite         Element not present.    0.000e+00           0   0.000e+00
Thenardite           Element not present.    0.000e+00           0   0.000e+00
Trona                Element not present.    0.000e+00           0   0.000e+00
Vaterite             Element not present.    0.000e+00           0   0.000e+00

-----------------------------Solution composition------------------------------

	Elements           Molality       Moles

	Mg                8.300e-03   8.300e-03
	S                 8.300e-03   8.300e-03

----------------------------Description of solution----------------------------

                                       pH  =   8.655      Charge balance
                                       pe  =   4.000      Adjusted to redox equilibrium
      Specific Conductance (µS/cm, -23°C)  = 304
                          Density (g/cm³)  =   0.99293
                               Volume (L)  =   1.00813
                        Activity of water  =   1.000
                 Ionic strength (mol/kgw)  =   3.320e-02
                       Mass of water (kg)  =   1.000e+00
                 Total alkalinity (eq/kg)  =   7.796e-08
                         Temperature (°C)  = -22.70
                  Electrical balance (eq)  =  -7.796e-08
 Percent error, 100*(Cat-|An|)/(Cat+|An|)  =  -0.00
                               Iterations  = 401 (2937 overall)
                         Gamma iterations  =   0
                      Osmotic coefficient  =   1.72056
                         Density of water  =   0.99170
                                  Total H  = 1.110186e+02
                                  Total O  = 5.554250e+01

----------------------------Distribution of species----------------------------

                                                    Unscaled  Unscaled
                                Unscaled       Log       Log       Log    mole V
   Species          Molality    Activity  Molality  Activity     Gamma    cm³/mol

   OH-             3.924e-08   3.924e-08    -7.406    -7.406     0.000    -13.36
   H+              2.213e-09   2.213e-09    -8.655    -8.655     0.000      0.00
   H2O             5.551e+01   9.998e-01     1.744    -0.000     0.000     18.17
Mg            8.300e-03
   Mg+2            8.300e-03   8.300e-03    -2.081    -2.081     0.000    -18.57
   MgOH+           4.094e-08   4.094e-08    -7.388    -7.388     0.000     (0)  
S(6)          8.300e-03
   SO4-2           8.300e-03   8.300e-03    -2.081    -2.081     0.000    -10.69

------------------------------Saturation indices-------------------------------

  Phase               SI** log IAP   log K(250 K,   1 atm)

  Epsomite         -1.60     -4.16   -2.57  MgSO4:7H2O
  Hexahydrite      -2.39     -4.16   -1.77  MgSO4:6H2O
  Ice(s)            0.10     -0.00   -0.10  H2O
  Kieserite        -6.03     -4.16    1.87  MgSO4:H2O
  Meridianite      -0.92     -4.16   -3.25  MgSO4:11H2O

**For a gas, SI = log10(fugacity). Fugacity = pressure * phi / 1 atm.
  For ideal gases, phi = 1.

ERROR: Numerical method failed on all combinations of convergence parameters, cell/soln/mix 1
--------------------------------
End of Run after 34.249 Seconds.
--------------------------------

