   Input file: C:\Users\nswol\Dropbox\Graduate School\Research\UTIG\Projects\2021-Wolfenbarger-Bulk Properties\PHREEQC\frezchem\Europa\SO4-dominated.pqi
  Output file: C:\Users\nswol\Dropbox\Graduate School\Research\UTIG\Projects\2021-Wolfenbarger-Bulk Properties\PHREEQC\frezchem\Europa\SO4-dominated.pqo
Database file: C:\Program Files (x86)\USGS\Phreeqc Interactive 3.7.3-15968\database\frezchem.dat

------------------
Reading data base.
------------------

	PITZER
	SOLUTION_MASTER_SPECIES
	SOLUTION_SPECIES
	PHASES
	PITZER
	EXCHANGE_MASTER_SPECIES
	EXCHANGE_SPECIES
	SURFACE_MASTER_SPECIES
	SURFACE_SPECIES
	END
------------------------------------
Reading input data for simulation 1.
------------------------------------

	DATABASE C:\Program Files (x86)\USGS\Phreeqc Interactive 3.7.3-15968\database\frezchem.dat
	TITLE SO4-dominated - frezchem.dat
	SOLUTION
		units	mol/kgw
			Na	0.02308
			Mg	0.03077	
			Cl	0.00769
			S	0.03846	
	EQUILIBRIUM_PHASES
		Anhydrite		0.0	0.0
		Antarcticite	0.0	0.0
		Aphthitalite	0.0	0.0
		Aragonite		0.0	0.0
		Arcanite		0.0	0.0
		Bischofite		0.0	0.0
		Bloedite		0.0	0.0
		Calcite		0.0	0.0
		Carnallite		0.0	0.0
		Dolomite		0.0	0.0
		Epsomite		0.0	0.0
		Gypsum		0.0	0.0
		Halite		0.0	0.0
		Hexahydrite		0.0	0.0
		Hydrohalite		0.0	0.0
		Hydromagnesite	0.0	0.0
		Ikaite		0.0	0.0
		Kalicinite		0.0	0.0
		Kieserite		0.0	0.0
		Landsfordite	0.0	0.0
		Magnesite		0.0	0.0
		Meridianite		0.0	0.0
		MgCl2:8H2O		0.0	0.0
		MgCl2:12H2O		0.0	0.0
		Mirabilite		0.0	0.0
		Na2CO3:7H2O		0.0	0.0
		Nahcolite		0.0	0.0
		Natron		0.0	0.0
		Nesquehonite	0.0	0.0
		Picromerite		0.0	0.0
		Sylvite		0.0	0.0
		Tachyhydrite	0.0	0.0
		Thenardite		0.0	0.0
		Trona			0.0	0.0
		Vaterite		0.0	0.0
		Ice(s) 		0.0	0.0
	REACTION_TEMPERATURE
	        0 -40.0 in 401 steps
	END
-----
TITLE
-----

 SO4-dominated - frezchem.dat

-------------------------------------------
Beginning of initial solution calculations.
-------------------------------------------

Initial solution 1.	

-----------------------------Solution composition------------------------------

	Elements           Molality       Moles

	Cl                7.690e-03   7.690e-03
	Mg                3.077e-02   3.077e-02
	Na                2.308e-02   2.308e-02
	S                 3.846e-02   3.846e-02

----------------------------Description of solution----------------------------

                                       pH  =   7.000    
                                       pe  =   4.000    
      Specific Conductance (µS/cm,  25°C)  = 7545
                          Density (g/cm³)  =   1.00218
                               Volume (L)  =   1.00306
                        Activity of water  =   0.999
                 Ionic strength (mol/kgw)  =   1.538e-01
                       Mass of water (kg)  =   1.000e+00
                 Total alkalinity (eq/kg)  =   1.992e-07
                         Temperature (°C)  =  25.00
                  Electrical balance (eq)  =   9.801e-06
 Percent error, 100*(Cat-|An|)/(Cat+|An|)  =   0.01
                               Iterations  =   5
                         Gamma iterations  =   3
                      Osmotic coefficient  =   0.74101
                         Density of water  =   0.99704
                                  Total H  = 1.110186e+02
                                  Total O  = 5.566314e+01

----------------------------Distribution of species----------------------------

                                                    Unscaled  Unscaled
                                Unscaled       Log       Log       Log    mole V
   Species          Molality    Activity  Molality  Activity     Gamma    cm³/mol

   OH-             1.479e-07   1.011e-07    -6.830    -6.995    -0.165     -3.60
   H+              1.436e-07   1.000e-07    -6.843    -7.000    -0.157      0.00
   H2O             5.551e+01   9.987e-01     1.744    -0.001     0.000     18.07
Cl            7.690e-03
   Cl-             7.690e-03   5.822e-03    -2.114    -2.235    -0.121     18.41
Mg            3.077e-02
   Mg+2            3.077e-02   8.748e-03    -1.512    -2.058    -0.546    -21.01
   MgOH+           1.949e-07   1.356e-07    -6.710    -6.868    -0.158     (0)  
Na            2.308e-02
   Na+             2.308e-02   1.679e-02    -1.637    -1.775    -0.138     -1.00
S(6)          3.846e-02
   SO4-2           3.846e-02   1.077e-02    -1.415    -1.968    -0.553     16.22

------------------------------Saturation indices-------------------------------

  Phase               SI** log IAP   log K(298 K,   1 atm)

  Bischofite      -11.16     -6.53    4.63  MgCl2:6H2O
  Bloedite         -7.17     -9.55   -2.37  Na2Mg(SO4)2:4H2O
  Epsomite         -2.15     -4.03   -1.88  MgSO4:7H2O
  Halite           -5.59     -4.01    1.58  NaCl
  Hexahydrite      -2.40     -4.03   -1.63  MgSO4:6H2O
  Hydrohalite      -5.53     -4.01    1.52  NaCl:2H2O
  Ice(s)           -0.10     -0.00    0.10  H2O
  Kieserite        -3.82     -4.03   -0.20  MgSO4:H2O
  Meridianite      -2.72     -4.03   -1.31  MgSO4:11H2O
  MgCl2:12H2O     -11.20     -6.53    4.67  MgCl2:12H2O
  MgCl2:8H2O      -10.70     -6.53    4.17  MgCl2:8H2O
  Mirabilite       -4.31     -5.52   -1.22  Na2SO4:10H2O
  Thenardite       -5.23     -5.52   -0.29  Na2SO4

**For a gas, SI = log10(fugacity). Fugacity = pressure * phi / 1 atm.
  For ideal gases, phi = 1.

-----------------------------------------
Beginning of batch-reaction calculations.
-----------------------------------------

Reaction step 1.

WARNING: Element Ca is contained in Anhydrite (which has 0.0 mass),	
but is not in solution or other phases.
WARNING: Element Ca is contained in Antarcticite (which has 0.0 mass),	
but is not in solution or other phases.
WARNING: Element K is contained in Aphthitalite (which has 0.0 mass),	
but is not in solution or other phases.
WARNING: Element C is contained in Aragonite (which has 0.0 mass),	
but is not in solution or other phases.
WARNING: Element Ca is contained in Aragonite (which has 0.0 mass),	
but is not in solution or other phases.
WARNING: Element K is contained in Arcanite (which has 0.0 mass),	
but is not in solution or other phases.
WARNING: Element C is contained in Calcite (which has 0.0 mass),	
but is not in solution or other phases.
WARNING: Element Ca is contained in Calcite (which has 0.0 mass),	
but is not in solution or other phases.
WARNING: Element K is contained in Carnallite (which has 0.0 mass),	
but is not in solution or other phases.
WARNING: Element C is contained in Dolomite (which has 0.0 mass),	
but is not in solution or other phases.
WARNING: Element Ca is contained in Dolomite (which has 0.0 mass),	
but is not in solution or other phases.
WARNING: Element Ca is contained in Gypsum (which has 0.0 mass),	
but is not in solution or other phases.
WARNING: Element C is contained in Hydromagnesite (which has 0.0 mass),	
but is not in solution or other phases.
WARNING: Element C is contained in Ikaite (which has 0.0 mass),	
but is not in solution or other phases.
WARNING: Element Ca is contained in Ikaite (which has 0.0 mass),	
but is not in solution or other phases.
WARNING: Element C is contained in Kalicinite (which has 0.0 mass),	
but is not in solution or other phases.
WARNING: Element K is contained in Kalicinite (which has 0.0 mass),	
but is not in solution or other phases.
WARNING: Element C is contained in Landsfordite (which has 0.0 mass),	
but is not in solution or other phases.
WARNING: Element C is contained in Magnesite (which has 0.0 mass),	
but is not in solution or other phases.
WARNING: Element C is contained in Na2CO3:7H2O (which has 0.0 mass),	
but is not in solution or other phases.
WARNING: Element C is contained in Nahcolite (which has 0.0 mass),	
but is not in solution or other phases.
WARNING: Element C is contained in Natron (which has 0.0 mass),	
but is not in solution or other phases.
WARNING: Element C is contained in Nesquehonite (which has 0.0 mass),	
but is not in solution or other phases.
WARNING: Element K is contained in Picromerite (which has 0.0 mass),	
but is not in solution or other phases.
WARNING: Element K is contained in Sylvite (which has 0.0 mass),	
but is not in solution or other phases.
WARNING: Element Ca is contained in Tachyhydrite (which has 0.0 mass),	
but is not in solution or other phases.
WARNING: Element C is contained in Trona (which has 0.0 mass),	
but is not in solution or other phases.
WARNING: Element C is contained in Vaterite (which has 0.0 mass),	
but is not in solution or other phases.
WARNING: Element Ca is contained in Vaterite (which has 0.0 mass),	
but is not in solution or other phases.
Using solution 1.	
Using pure phase assemblage 1.	
Using temperature 1.	

-------------------------------Phase assemblage--------------------------------

                                                      Moles in assemblage
Phase               SI  log IAP  log K(T, P)   Initial       Final       Delta

Anhydrite            Element not present.    0.000e+00           0   0.000e+00
Antarcticite         Element not present.    0.000e+00           0   0.000e+00
Aphthitalite         Element not present.    0.000e+00           0   0.000e+00
Aragonite            Element not present.    0.000e+00           0   0.000e+00
Arcanite             Element not present.    0.000e+00           0   0.000e+00
Bischofite      -11.26    -6.51      4.75    0.000e+00           0   0.000e+00
Bloedite         -7.02    -9.48     -2.46    0.000e+00           0   0.000e+00
Calcite              Element not present.    0.000e+00           0   0.000e+00
Carnallite           Element not present.    0.000e+00           0   0.000e+00
Dolomite             Element not present.    0.000e+00           0   0.000e+00
Epsomite         -1.76    -3.97     -2.21    0.000e+00           0   0.000e+00
Gypsum               Element not present.    0.000e+00           0   0.000e+00
Halite           -5.52    -4.02      1.50    0.000e+00           0   0.000e+00
Hexahydrite      -2.27    -3.97     -1.70    0.000e+00           0   0.000e+00
Hydrohalite      -5.28    -4.02      1.25    0.000e+00           0   0.000e+00
Hydromagnesite       Element not present.    0.000e+00           0   0.000e+00
Ice(s)           -0.00    -0.00      0.00    0.000e+00           0   0.000e+00
Ikaite               Element not present.    0.000e+00           0   0.000e+00
Kalicinite           Element not present.    0.000e+00           0   0.000e+00
Kieserite        -4.52    -3.97      0.55    0.000e+00           0   0.000e+00
Landsfordite         Element not present.    0.000e+00           0   0.000e+00
Magnesite            Element not present.    0.000e+00           0   0.000e+00
Meridianite      -1.65    -3.98     -2.32    0.000e+00           0   0.000e+00
MgCl2:12H2O      -9.36    -6.52      2.85    0.000e+00           0   0.000e+00
MgCl2:8H2O      -10.37    -6.52      3.85    0.000e+00           0   0.000e+00
Mirabilite       -3.00    -5.51     -2.51    0.000e+00           0   0.000e+00
Na2CO3:7H2O          Element not present.    0.000e+00           0   0.000e+00
Nahcolite            Element not present.    0.000e+00           0   0.000e+00
Natron               Element not present.    0.000e+00           0   0.000e+00
Nesquehonite         Element not present.    0.000e+00           0   0.000e+00
Picromerite          Element not present.    0.000e+00           0   0.000e+00
Sylvite              Element not present.    0.000e+00           0   0.000e+00
Tachyhydrite         Element not present.    0.000e+00           0   0.000e+00
Thenardite       -5.20    -5.51     -0.31    0.000e+00           0   0.000e+00
Trona                Element not present.    0.000e+00           0   0.000e+00
Vaterite             Element not present.    0.000e+00           0   0.000e+00

-----------------------------Solution composition------------------------------

	Elements           Molality       Moles

	Cl                7.690e-03   7.690e-03
	Mg                3.077e-02   3.077e-02
	Na                2.308e-02   2.308e-02
	S                 3.846e-02   3.846e-02

----------------------------Description of solution----------------------------

                                       pH  =   7.788      Charge balance
                                       pe  =   4.000      Adjusted to redox equilibrium
      Specific Conductance (µS/cm,   0°C)  = 3798
                          Density (g/cm³)  =   1.00524
                               Volume (L)  =   1.00001
                        Activity of water  =   0.999
                 Ionic strength (mol/kgw)  =   1.538e-01
                       Mass of water (kg)  =   1.000e+00
                 Total alkalinity (eq/kg)  =   1.992e-07
                         Temperature (°C)  =   0.00
                  Electrical balance (eq)  =   9.801e-06
 Percent error, 100*(Cat-|An|)/(Cat+|An|)  =   0.01
                               Iterations  =   5
                         Gamma iterations  =   2
                      Osmotic coefficient  =   0.73566
                         Density of water  =   0.99984
                                  Total H  = 1.110186e+02
                                  Total O  = 5.566314e+01

----------------------------Distribution of species----------------------------

                                                    Unscaled  Unscaled
                                Unscaled       Log       Log       Log    mole V
   Species          Molality    Activity  Molality  Activity     Gamma    cm³/mol

   OH-             1.038e-07   7.076e-08    -6.984    -7.150    -0.167     -5.73
   H+              2.332e-08   1.629e-08    -7.632    -7.788    -0.156      0.00
   H2O             5.551e+01   9.987e-01     1.744    -0.001     0.000     18.02
Cl            7.690e-03
   Cl-             7.690e-03   5.724e-03    -2.114    -2.242    -0.128     16.73
Mg            3.077e-02
   Mg+2            3.077e-02   9.421e-03    -1.512    -2.026    -0.514    -20.13
   MgOH+           1.187e-07   8.281e-08    -6.926    -7.082    -0.156     (0)  
Na            2.308e-02
   Na+             2.308e-02   1.656e-02    -1.637    -1.781    -0.144     -2.95
S(6)          3.846e-02
   SO4-2           3.846e-02   1.138e-02    -1.415    -1.944    -0.529     10.53

------------------------------Saturation indices-------------------------------

  Phase               SI** log IAP   log K(273 K,   1 atm)

  Bischofite      -11.26     -6.51    4.75  MgCl2:6H2O
  Bloedite         -7.02     -9.48   -2.46  Na2Mg(SO4)2:4H2O
  Epsomite         -1.76     -3.97   -2.21  MgSO4:7H2O
  Halite           -5.52     -4.02    1.50  NaCl
  Hexahydrite      -2.27     -3.97   -1.70  MgSO4:6H2O
  Hydrohalite      -5.28     -4.02    1.25  NaCl:2H2O
  Ice(s)           -0.00     -0.00    0.00  H2O
  Kieserite        -4.52     -3.97    0.55  MgSO4:H2O
  Meridianite      -1.65     -3.98   -2.32  MgSO4:11H2O
  MgCl2:12H2O      -9.36     -6.52    2.85  MgCl2:12H2O
  MgCl2:8H2O      -10.37     -6.52    3.85  MgCl2:8H2O
  Mirabilite       -3.00     -5.51   -2.51  Na2SO4:10H2O
  Thenardite       -5.20     -5.51   -0.31  Na2SO4

**For a gas, SI = log10(fugacity). Fugacity = pressure * phi / 1 atm.
  For ideal gases, phi = 1.

Reaction step 2.

WARNING: Element Ca is contained in Anhydrite (which has 0.0 mass),	
but is not in solution or other phases.
WARNING: Element Ca is contained in Antarcticite (which has 0.0 mass),	
but is not in solution or other phases.
WARNING: Element K is contained in Aphthitalite (which has 0.0 mass),	
but is not in solution or other phases.
WARNING: Element C is contained in Aragonite (which has 0.0 mass),	
but is not in solution or other phases.
WARNING: Element Ca is contained in Aragonite (which has 0.0 mass),	
but is not in solution or other phases.
WARNING: Element K is contained in Arcanite (which has 0.0 mass),	
but is not in solution or other phases.
WARNING: Element C is contained in Calcite (which has 0.0 mass),	
but is not in solution or other phases.
WARNING: Element Ca is contained in Calcite (which has 0.0 mass),	
but is not in solution or other phases.
WARNING: Element K is contained in Carnallite (which has 0.0 mass),	
but is not in solution or other phases.
WARNING: Element C is contained in Dolomite (which has 0.0 mass),	
but is not in solution or other phases.
WARNING: Element Ca is contained in Dolomite (which has 0.0 mass),	
but is not in solution or other phases.
WARNING: Element Ca is contained in Gypsum (which has 0.0 mass),	
but is not in solution or other phases.
WARNING: Element C is contained in Hydromagnesite (which has 0.0 mass),	
but is not in solution or other phases.
WARNING: Element C is contained in Ikaite (which has 0.0 mass),	
but is not in solution or other phases.
WARNING: Element Ca is contained in Ikaite (which has 0.0 mass),	
but is not in solution or other phases.
WARNING: Element C is contained in Kalicinite (which has 0.0 mass),	
but is not in solution or other phases.
WARNING: Element K is contained in Kalicinite (which has 0.0 mass),	
but is not in solution or other phases.
WARNING: Element C is contained in Landsfordite (which has 0.0 mass),	
but is not in solution or other phases.
WARNING: Element C is contained in Magnesite (which has 0.0 mass),	
but is not in solution or other phases.
WARNING: Element C is contained in Na2CO3:7H2O (which has 0.0 mass),	
but is not in solution or other phases.
WARNING: Element C is contained in Nahcolite (which has 0.0 mass),	
but is not in solution or other phases.
WARNING: Element C is contained in Natron (which has 0.0 mass),	
but is not in solution or other phases.
WARNING: Element C is contained in Nesquehonite (which has 0.0 mass),	
but is not in solution or other phases.
WARNING: Element K is contained in Picromerite (which has 0.0 mass),	
but is not in solution or other phases.
WARNING: Element K is contained in Sylvite (which has 0.0 mass),	
but is not in solution or other phases.
WARNING: Element Ca is contained in Tachyhydrite (which has 0.0 mass),	
but is not in solution or other phases.
WARNING: Element C is contained in Trona (which has 0.0 mass),	
but is not in solution or other phases.
WARNING: Element C is contained in Vaterite (which has 0.0 mass),	
but is not in solution or other phases.
WARNING: Element Ca is contained in Vaterite (which has 0.0 mass),	
but is not in solution or other phases.
Using solution 1.	
Using pure phase assemblage 1.	
Using temperature 1.	

-------------------------------Phase assemblage--------------------------------

                                                      Moles in assemblage
Phase               SI  log IAP  log K(T, P)   Initial       Final       Delta

Anhydrite            Element not present.    0.000e+00           0   0.000e+00
Antarcticite         Element not present.    0.000e+00           0   0.000e+00
Aphthitalite         Element not present.    0.000e+00           0   0.000e+00
Aragonite            Element not present.    0.000e+00           0   0.000e+00
Arcanite             Element not present.    0.000e+00           0   0.000e+00
Bischofite      -11.26    -6.51      4.75    0.000e+00           0   0.000e+00
Bloedite         -7.02    -9.48     -2.46    0.000e+00           0   0.000e+00
Calcite              Element not present.    0.000e+00           0   0.000e+00
Carnallite           Element not present.    0.000e+00           0   0.000e+00
Dolomite             Element not present.    0.000e+00           0   0.000e+00
Epsomite         -1.76    -3.97     -2.21    0.000e+00           0   0.000e+00
Gypsum               Element not present.    0.000e+00           0   0.000e+00
Halite           -5.52    -4.02      1.50    0.000e+00           0   0.000e+00
Hexahydrite      -2.27    -3.97     -1.70    0.000e+00           0   0.000e+00
Hydrohalite      -5.28    -4.02      1.25    0.000e+00           0   0.000e+00
Hydromagnesite       Element not present.    0.000e+00           0   0.000e+00
Ice(s)           -0.00    -0.00     -0.00    0.000e+00           0   0.000e+00
Ikaite               Element not present.    0.000e+00           0   0.000e+00
Kalicinite           Element not present.    0.000e+00           0   0.000e+00
Kieserite        -4.52    -3.97      0.55    0.000e+00           0   0.000e+00
Landsfordite         Element not present.    0.000e+00           0   0.000e+00
Magnesite            Element not present.    0.000e+00           0   0.000e+00
Meridianite      -1.65    -3.98     -2.33    0.000e+00           0   0.000e+00
MgCl2:12H2O      -9.36    -6.52      2.84    0.000e+00           0   0.000e+00
MgCl2:8H2O      -10.36    -6.52      3.85    0.000e+00           0   0.000e+00
Mirabilite       -3.00    -5.51     -2.52    0.000e+00           0   0.000e+00
Na2CO3:7H2O          Element not present.    0.000e+00           0   0.000e+00
Nahcolite            Element not present.    0.000e+00           0   0.000e+00
Natron               Element not present.    0.000e+00           0   0.000e+00
Nesquehonite         Element not present.    0.000e+00           0   0.000e+00
Picromerite          Element not present.    0.000e+00           0   0.000e+00
Sylvite              Element not present.    0.000e+00           0   0.000e+00
Tachyhydrite         Element not present.    0.000e+00           0   0.000e+00
Thenardite       -5.20    -5.51     -0.31    0.000e+00           0   0.000e+00
Trona                Element not present.    0.000e+00           0   0.000e+00
Vaterite             Element not present.    0.000e+00           0   0.000e+00

-----------------------------Solution composition------------------------------

	Elements           Molality       Moles

	Cl                7.690e-03   7.690e-03
	Mg                3.077e-02   3.077e-02
	Na                2.308e-02   2.308e-02
	S                 3.846e-02   3.846e-02

----------------------------Description of solution----------------------------

                                       pH  =   7.792      Charge balance
                                       pe  =   4.000      Adjusted to redox equilibrium
      Specific Conductance (µS/cm,  -0°C)  = 3784
                          Density (g/cm³)  =   1.00523
                               Volume (L)  =   1.00001
                        Activity of water  =   0.999
                 Ionic strength (mol/kgw)  =   1.538e-01
                       Mass of water (kg)  =   1.000e+00
                 Total alkalinity (eq/kg)  =   1.992e-07
                         Temperature (°C)  =  -0.10
                  Electrical balance (eq)  =   9.801e-06
 Percent error, 100*(Cat-|An|)/(Cat+|An|)  =   0.01
                               Iterations  =   5
                         Gamma iterations  =   2
                      Osmotic coefficient  =   0.73563
                         Density of water  =   0.99983
                                  Total H  = 1.110186e+02
                                  Total O  = 5.566314e+01

----------------------------Distribution of species----------------------------

                                                    Unscaled  Unscaled
                                Unscaled       Log       Log       Log    mole V
   Species          Molality    Activity  Molality  Activity     Gamma    cm³/mol

   OH-             1.037e-07   7.069e-08    -6.984    -7.151    -0.167     -5.75
   H+              2.311e-08   1.614e-08    -7.636    -7.792    -0.156      0.00
   H2O             5.551e+01   9.987e-01     1.744    -0.001     0.000     18.02
Cl            7.690e-03
   Cl-             7.690e-03   5.724e-03    -2.114    -2.242    -0.128     16.71
Mg            3.077e-02
   Mg+2            3.077e-02   9.424e-03    -1.512    -2.026    -0.514    -20.13
   MgOH+           1.185e-07   8.273e-08    -6.926    -7.082    -0.156     (0)  
Na            2.308e-02
   Na+             2.308e-02   1.656e-02    -1.637    -1.781    -0.144     -2.96
S(6)          3.846e-02
   SO4-2           3.846e-02   1.138e-02    -1.415    -1.944    -0.529     10.49

------------------------------Saturation indices-------------------------------

  Phase               SI** log IAP   log K(273 K,   1 atm)

  Bischofite      -11.26     -6.51    4.75  MgCl2:6H2O
  Bloedite         -7.02     -9.48   -2.46  Na2Mg(SO4)2:4H2O
  Epsomite         -1.76     -3.97   -2.21  MgSO4:7H2O
  Halite           -5.52     -4.02    1.50  NaCl
  Hexahydrite      -2.27     -3.97   -1.70  MgSO4:6H2O
  Hydrohalite      -5.28     -4.02    1.25  NaCl:2H2O
  Ice(s)           -0.00     -0.00   -0.00  H2O
  Kieserite        -4.52     -3.97    0.55  MgSO4:H2O
  Meridianite      -1.65     -3.98   -2.33  MgSO4:11H2O
  MgCl2:12H2O      -9.36     -6.52    2.84  MgCl2:12H2O
  MgCl2:8H2O      -10.36     -6.52    3.85  MgCl2:8H2O
  Mirabilite       -3.00     -5.51   -2.52  Na2SO4:10H2O
  Thenardite       -5.20     -5.51   -0.31  Na2SO4

**For a gas, SI = log10(fugacity). Fugacity = pressure * phi / 1 atm.
  For ideal gases, phi = 1.

Reaction step 3.

WARNING: Element Ca is contained in Anhydrite (which has 0.0 mass),	
but is not in solution or other phases.
WARNING: Element Ca is contained in Antarcticite (which has 0.0 mass),	
but is not in solution or other phases.
WARNING: Element K is contained in Aphthitalite (which has 0.0 mass),	
but is not in solution or other phases.
WARNING: Element C is contained in Aragonite (which has 0.0 mass),	
but is not in solution or other phases.
WARNING: Element Ca is contained in Aragonite (which has 0.0 mass),	
but is not in solution or other phases.
WARNING: Element K is contained in Arcanite (which has 0.0 mass),	
but is not in solution or other phases.
WARNING: Element C is contained in Calcite (which has 0.0 mass),	
but is not in solution or other phases.
WARNING: Element Ca is contained in Calcite (which has 0.0 mass),	
but is not in solution or other phases.
WARNING: Element K is contained in Carnallite (which has 0.0 mass),	
but is not in solution or other phases.
WARNING: Element C is contained in Dolomite (which has 0.0 mass),	
but is not in solution or other phases.
WARNING: Element Ca is contained in Dolomite (which has 0.0 mass),	
but is not in solution or other phases.
WARNING: Element Ca is contained in Gypsum (which has 0.0 mass),	
but is not in solution or other phases.
WARNING: Element C is contained in Hydromagnesite (which has 0.0 mass),	
but is not in solution or other phases.
WARNING: Element C is contained in Ikaite (which has 0.0 mass),	
but is not in solution or other phases.
WARNING: Element Ca is contained in Ikaite (which has 0.0 mass),	
but is not in solution or other phases.
WARNING: Element C is contained in Kalicinite (which has 0.0 mass),	
but is not in solution or other phases.
WARNING: Element K is contained in Kalicinite (which has 0.0 mass),	
but is not in solution or other phases.
WARNING: Element C is contained in Landsfordite (which has 0.0 mass),	
but is not in solution or other phases.
WARNING: Element C is contained in Magnesite (which has 0.0 mass),	
but is not in solution or other phases.
WARNING: Element C is contained in Na2CO3:7H2O (which has 0.0 mass),	
but is not in solution or other phases.
WARNING: Element C is contained in Nahcolite (which has 0.0 mass),	
but is not in solution or other phases.
WARNING: Element C is contained in Natron (which has 0.0 mass),	
but is not in solution or other phases.
WARNING: Element C is contained in Nesquehonite (which has 0.0 mass),	
but is not in solution or other phases.
WARNING: Element K is contained in Picromerite (which has 0.0 mass),	
but is not in solution or other phases.
WARNING: Element K is contained in Sylvite (which has 0.0 mass),	
but is not in solution or other phases.
WARNING: Element Ca is contained in Tachyhydrite (which has 0.0 mass),	
but is not in solution or other phases.
WARNING: Element C is contained in Trona (which has 0.0 mass),	
but is not in solution or other phases.
WARNING: Element C is contained in Vaterite (which has 0.0 mass),	
but is not in solution or other phases.
WARNING: Element Ca is contained in Vaterite (which has 0.0 mass),	
but is not in solution or other phases.
WARNING: Maximum iterations exceeded, 200

WARNING: Numerical method failed with this set of convergence parameters.

WARNING: Trying smaller step size, pe step size 10, 5 ... 

WARNING: Element Ca is contained in Anhydrite (which has 0.0 mass),	
but is not in solution or other phases.
WARNING: Element Ca is contained in Antarcticite (which has 0.0 mass),	
but is not in solution or other phases.
WARNING: Element K is contained in Aphthitalite (which has 0.0 mass),	
but is not in solution or other phases.
WARNING: Element C is contained in Aragonite (which has 0.0 mass),	
but is not in solution or other phases.
WARNING: Element Ca is contained in Aragonite (which has 0.0 mass),	
but is not in solution or other phases.
WARNING: Element K is contained in Arcanite (which has 0.0 mass),	
but is not in solution or other phases.
WARNING: Element C is contained in Calcite (which has 0.0 mass),	
but is not in solution or other phases.
WARNING: Element Ca is contained in Calcite (which has 0.0 mass),	
but is not in solution or other phases.
WARNING: Element K is contained in Carnallite (which has 0.0 mass),	
but is not in solution or other phases.
WARNING: Element C is contained in Dolomite (which has 0.0 mass),	
but is not in solution or other phases.
Using solution 1.	
Using pure phase assemblage 1.	
Using temperature 1.	

-------------------------------Phase assemblage--------------------------------

                                                      Moles in assemblage
Phase               SI  log IAP  log K(T, P)   Initial       Final       Delta

Anhydrite            Element not present.    0.000e+00           0   0.000e+00
Antarcticite         Element not present.    0.000e+00           0   0.000e+00
Aphthitalite         Element not present.    0.000e+00           0   0.000e+00
Aragonite            Element not present.    0.000e+00           0   0.000e+00
Arcanite             Element not present.    0.000e+00           0   0.000e+00
Bischofite      -10.84    -6.09      4.75    0.000e+00           0   0.000e+00
Bloedite         -6.42    -8.88     -2.46    0.000e+00           0   0.000e+00
Calcite              Element not present.    0.000e+00           0   0.000e+00
Carnallite           Element not present.    0.000e+00           0   0.000e+00
Dolomite             Element not present.    0.000e+00           0   0.000e+00
Epsomite         -1.57    -3.78     -2.21    0.000e+00           0   0.000e+00
Gypsum               Element not present.    0.000e+00           0   0.000e+00
Halite           -5.20    -3.70      1.50    0.000e+00           0   0.000e+00
Hexahydrite      -2.08    -3.78     -1.70    0.000e+00           0   0.000e+00
Hydrohalite      -4.96    -3.71      1.25    0.000e+00           0   0.000e+00
Hydromagnesite       Element not present.    0.000e+00           0   0.000e+00
Ice(s)            0.00    -0.00     -0.00    0.000e+00   1.868e+01   1.868e+01
Ikaite               Element not present.    0.000e+00           0   0.000e+00
Kalicinite           Element not present.    0.000e+00           0   0.000e+00
Kieserite        -4.34    -3.78      0.56    0.000e+00           0   0.000e+00
Landsfordite         Element not present.    0.000e+00           0   0.000e+00
Magnesite            Element not present.    0.000e+00           0   0.000e+00
Meridianite      -1.46    -3.79     -2.33    0.000e+00           0   0.000e+00
MgCl2:12H2O      -8.93    -6.10      2.83    0.000e+00           0   0.000e+00
MgCl2:8H2O       -9.94    -6.09      3.85    0.000e+00           0   0.000e+00
Mirabilite       -2.59    -5.11     -2.52    0.000e+00           0   0.000e+00
Na2CO3:7H2O          Element not present.    0.000e+00           0   0.000e+00
Nahcolite            Element not present.    0.000e+00           0   0.000e+00
Natron               Element not present.    0.000e+00           0   0.000e+00
Nesquehonite         Element not present.    0.000e+00           0   0.000e+00
Picromerite          Element not present.    0.000e+00           0   0.000e+00
Sylvite              Element not present.    0.000e+00           0   0.000e+00
Tachyhydrite         Element not present.    0.000e+00           0   0.000e+00
Thenardite       -4.79    -5.10     -0.31    0.000e+00           0   0.000e+00
Trona                Element not present.    0.000e+00           0   0.000e+00
Vaterite             Element not present.    0.000e+00           0   0.000e+00

-----------------------------Solution composition------------------------------

	Elements           Molality       Moles

	Cl                1.159e-02   7.690e-03
	Mg                4.637e-02   3.077e-02
	Na                3.478e-02   2.308e-02
	S                 5.796e-02   3.846e-02

----------------------------Description of solution----------------------------

                                       pH  =   7.873      Charge balance
                                       pe  =   4.000      Adjusted to redox equilibrium
      Specific Conductance (µS/cm,  -0°C)  = 5328
                          Density (g/cm³)  =   1.00793
                               Volume (L)  =   0.66352
                        Activity of water  =   0.998
                 Ionic strength (mol/kgw)  =   2.319e-01
                       Mass of water (kg)  =   6.635e-01
                 Total alkalinity (eq/kg)  =   3.002e-07
                         Temperature (°C)  =  -0.20
                  Electrical balance (eq)  =   9.801e-06
 Percent error, 100*(Cat-|An|)/(Cat+|An|)  =   0.01
                               Iterations  =   7 (1411 overall)
                         Gamma iterations  =   1
                      Osmotic coefficient  =   0.70371
                         Density of water  =   0.99983
                                  Total H  = 7.366519e+01
                                  Total O  = 3.698644e+01

----------------------------Distribution of species----------------------------

                                                    Unscaled  Unscaled
                                Unscaled       Log       Log       Log    mole V
   Species          Molality    Activity  Molality  Activity     Gamma    cm³/mol

   OH-             1.326e-07   8.417e-08    -6.877    -7.075    -0.197     -5.61
   H+              2.037e-08   1.341e-08    -7.691    -7.873    -0.182      0.00
   H2O             5.551e+01   9.981e-01     1.744    -0.001     0.000     18.02
Cl            1.159e-02
   Cl-             1.159e-02   8.336e-03    -1.936    -2.079    -0.143     16.78
Mg            4.637e-02
   Mg+2            4.637e-02   1.180e-02    -1.334    -1.928    -0.594    -20.02
   MgOH+           1.879e-07   1.233e-07    -6.726    -6.909    -0.183     (0)  
Na            3.478e-02
   Na+             3.478e-02   2.369e-02    -1.459    -1.625    -0.167     -2.82
S(6)          5.796e-02
   SO4-2           5.796e-02   1.411e-02    -1.237    -1.850    -0.614     10.98

------------------------------Saturation indices-------------------------------

  Phase               SI** log IAP   log K(272 K,   1 atm)

  Bischofite      -10.84     -6.09    4.75  MgCl2:6H2O
  Bloedite         -6.42     -8.88   -2.46  Na2Mg(SO4)2:4H2O
  Epsomite         -1.57     -3.78   -2.21  MgSO4:7H2O
  Halite           -5.20     -3.70    1.50  NaCl
  Hexahydrite      -2.08     -3.78   -1.70  MgSO4:6H2O
  Hydrohalite      -4.96     -3.71    1.25  NaCl:2H2O
  Ice(s)            0.00     -0.00   -0.00  H2O
  Kieserite        -4.34     -3.78    0.56  MgSO4:H2O
  Meridianite      -1.46     -3.79   -2.33  MgSO4:11H2O
  MgCl2:12H2O      -8.93     -6.10    2.83  MgCl2:12H2O
  MgCl2:8H2O       -9.94     -6.09    3.85  MgCl2:8H2O
  Mirabilite       -2.59     -5.11   -2.52  Na2SO4:10H2O
  Thenardite       -4.79     -5.10   -0.31  Na2SO4

**For a gas, SI = log10(fugacity). Fugacity = pressure * phi / 1 atm.
  For ideal gases, phi = 1.

Reaction step 4.

Using solution 1.	
Using pure phase assemblage 1.	
Using temperature 1.	

-------------------------------Phase assemblage--------------------------------

                                                      Moles in assemblage
Phase               SI  log IAP  log K(T, P)   Initial       Final       Delta

Anhydrite            Element not present.    0.000e+00           0   0.000e+00
Antarcticite         Element not present.    0.000e+00           0   0.000e+00
Aphthitalite         Element not present.    0.000e+00           0   0.000e+00
Aragonite            Element not present.    0.000e+00           0   0.000e+00
Arcanite             Element not present.    0.000e+00           0   0.000e+00
Bischofite      -10.37    -5.62      4.75    0.000e+00           0   0.000e+00
Bloedite         -5.79    -8.25     -2.46    0.000e+00           0   0.000e+00
Calcite              Element not present.    0.000e+00           0   0.000e+00
Carnallite           Element not present.    0.000e+00           0   0.000e+00
Dolomite             Element not present.    0.000e+00           0   0.000e+00
Epsomite         -1.37    -3.59     -2.22    0.000e+00           0   0.000e+00
Gypsum               Element not present.    0.000e+00           0   0.000e+00
Halite           -4.84    -3.35      1.49    0.000e+00           0   0.000e+00
Hexahydrite      -1.89    -3.59     -1.70    0.000e+00           0   0.000e+00
Hydrohalite      -4.60    -3.35      1.25    0.000e+00           0   0.000e+00
Hydromagnesite       Element not present.    0.000e+00           0   0.000e+00
Ice(s)            0.00    -0.00     -0.00    0.000e+00   3.222e+01   3.222e+01
Ikaite               Element not present.    0.000e+00           0   0.000e+00
Kalicinite           Element not present.    0.000e+00           0   0.000e+00
Kieserite        -4.14    -3.58      0.56    0.000e+00           0   0.000e+00
Landsfordite         Element not present.    0.000e+00           0   0.000e+00
Magnesite            Element not present.    0.000e+00           0   0.000e+00
Meridianite      -1.26    -3.59     -2.34    0.000e+00           0   0.000e+00
MgCl2:12H2O      -8.46    -5.63      2.83    0.000e+00           0   0.000e+00
MgCl2:8H2O       -9.47    -5.63      3.85    0.000e+00           0   0.000e+00
Mirabilite       -2.15    -4.68     -2.53    0.000e+00           0   0.000e+00
Na2CO3:7H2O          Element not present.    0.000e+00           0   0.000e+00
Nahcolite            Element not present.    0.000e+00           0   0.000e+00
Natron               Element not present.    0.000e+00           0   0.000e+00
Nesquehonite         Element not present.    0.000e+00           0   0.000e+00
Picromerite          Element not present.    0.000e+00           0   0.000e+00
Sylvite              Element not present.    0.000e+00           0   0.000e+00
Tachyhydrite         Element not present.    0.000e+00           0   0.000e+00
Thenardite       -4.35    -4.66     -0.31    0.000e+00           0   0.000e+00
Trona                Element not present.    0.000e+00           0   0.000e+00
Vaterite             Element not present.    0.000e+00           0   0.000e+00

-----------------------------Solution composition------------------------------

	Elements           Molality       Moles

	Cl                1.833e-02   7.690e-03
	Mg                7.334e-02   3.077e-02
	Na                5.501e-02   2.308e-02
	S                 9.166e-02   3.846e-02

----------------------------Description of solution----------------------------

                                       pH  =   7.965      Charge balance
                                       pe  =   4.000      Adjusted to redox equilibrium
      Specific Conductance (µS/cm,  -0°C)  = 7699
                          Density (g/cm³)  =   1.01255
                               Volume (L)  =   0.41956
                        Activity of water  =   0.997
                 Ionic strength (mol/kgw)  =   3.667e-01
                       Mass of water (kg)  =   4.196e-01
                 Total alkalinity (eq/kg)  =   4.747e-07
                         Temperature (°C)  =  -0.30
                  Electrical balance (eq)  =   9.801e-06
 Percent error, 100*(Cat-|An|)/(Cat+|An|)  =   0.01
                               Iterations  =   9 (1413 overall)
                         Gamma iterations  =   1
                      Osmotic coefficient  =   0.66912
                         Density of water  =   0.99982
                                  Total H  = 4.658129e+01
                                  Total O  = 2.344449e+01

----------------------------Distribution of species----------------------------

                                                    Unscaled  Unscaled
                                Unscaled       Log       Log       Log    mole V
   Species          Molality    Activity  Molality  Activity     Gamma    cm³/mol

   OH-             1.780e-07   1.029e-07    -6.750    -6.987    -0.238     -5.38
   H+              1.771e-08   1.085e-08    -7.752    -7.965    -0.213      0.00
   H2O             5.551e+01   9.971e-01     1.744    -0.001     0.000     18.02
Cl            1.833e-02
   Cl-             1.833e-02   1.273e-02    -1.737    -1.895    -0.158     16.88
Mg            7.334e-02
   Mg+2            7.333e-02   1.493e-02    -1.135    -1.826    -0.691    -19.88
   MgOH+           3.144e-07   1.907e-07    -6.503    -6.720    -0.217     (0)  
Na            5.501e-02
   Na+             5.501e-02   3.513e-02    -1.260    -1.454    -0.195     -2.63
S(6)          9.166e-02
   SO4-2           9.166e-02   1.757e-02    -1.038    -1.755    -0.717     11.66

------------------------------Saturation indices-------------------------------

  Phase               SI** log IAP   log K(272 K,   1 atm)

  Bischofite      -10.37     -5.62    4.75  MgCl2:6H2O
  Bloedite         -5.79     -8.25   -2.46  Na2Mg(SO4)2:4H2O
  Epsomite         -1.37     -3.59   -2.22  MgSO4:7H2O
  Halite           -4.84     -3.35    1.49  NaCl
  Hexahydrite      -1.89     -3.59   -1.70  MgSO4:6H2O
  Hydrohalite      -4.60     -3.35    1.25  NaCl:2H2O
  Ice(s)            0.00     -0.00   -0.00  H2O
  Kieserite        -4.14     -3.58    0.56  MgSO4:H2O
  Meridianite      -1.26     -3.59   -2.34  MgSO4:11H2O
  MgCl2:12H2O      -8.46     -5.63    2.83  MgCl2:12H2O
  MgCl2:8H2O       -9.47     -5.63    3.85  MgCl2:8H2O
  Mirabilite       -2.15     -4.68   -2.53  Na2SO4:10H2O
  Thenardite       -4.35     -4.66   -0.31  Na2SO4

**For a gas, SI = log10(fugacity). Fugacity = pressure * phi / 1 atm.
  For ideal gases, phi = 1.

Reaction step 5.

Using solution 1.	
Using pure phase assemblage 1.	
Using temperature 1.	

-------------------------------Phase assemblage--------------------------------

                                                      Moles in assemblage
Phase               SI  log IAP  log K(T, P)   Initial       Final       Delta

Anhydrite            Element not present.    0.000e+00           0   0.000e+00
Antarcticite         Element not present.    0.000e+00           0   0.000e+00
Aphthitalite         Element not present.    0.000e+00           0   0.000e+00
Aragonite            Element not present.    0.000e+00           0   0.000e+00
Arcanite             Element not present.    0.000e+00           0   0.000e+00
Bischofite      -10.04    -5.29      4.75    0.000e+00           0   0.000e+00
Bloedite         -5.36    -7.82     -2.46    0.000e+00           0   0.000e+00
Calcite              Element not present.    0.000e+00           0   0.000e+00
Carnallite           Element not present.    0.000e+00           0   0.000e+00
Dolomite             Element not present.    0.000e+00           0   0.000e+00
Epsomite         -1.25    -3.46     -2.22    0.000e+00           0   0.000e+00
Gypsum               Element not present.    0.000e+00           0   0.000e+00
Halite           -4.59    -3.10      1.49    0.000e+00           0   0.000e+00
Hexahydrite      -1.76    -3.46     -1.70    0.000e+00           0   0.000e+00
Hydrohalite      -4.35    -3.10      1.25    0.000e+00           0   0.000e+00
Hydromagnesite       Element not present.    0.000e+00           0   0.000e+00
Ice(s)            0.00    -0.00     -0.00    0.000e+00   3.868e+01   3.868e+01
Ikaite               Element not present.    0.000e+00           0   0.000e+00
Kalicinite           Element not present.    0.000e+00           0   0.000e+00
Kieserite        -4.02    -3.45      0.57    0.000e+00           0   0.000e+00
Landsfordite         Element not present.    0.000e+00           0   0.000e+00
Magnesite            Element not present.    0.000e+00           0   0.000e+00
Meridianite      -1.13    -3.47     -2.34    0.000e+00           0   0.000e+00
MgCl2:12H2O      -8.13    -5.30      2.82    0.000e+00           0   0.000e+00
MgCl2:8H2O       -9.14    -5.30      3.84    0.000e+00           0   0.000e+00
Mirabilite       -1.85    -4.38     -2.53    0.000e+00           0   0.000e+00
Na2CO3:7H2O          Element not present.    0.000e+00           0   0.000e+00
Nahcolite            Element not present.    0.000e+00           0   0.000e+00
Natron               Element not present.    0.000e+00           0   0.000e+00
Nesquehonite         Element not present.    0.000e+00           0   0.000e+00
Picromerite          Element not present.    0.000e+00           0   0.000e+00
Sylvite              Element not present.    0.000e+00           0   0.000e+00
Tachyhydrite         Element not present.    0.000e+00           0   0.000e+00
Thenardite       -4.05    -4.36     -0.31    0.000e+00           0   0.000e+00
Trona                Element not present.    0.000e+00           0   0.000e+00
Vaterite             Element not present.    0.000e+00           0   0.000e+00

-----------------------------Solution composition------------------------------

	Elements           Molality       Moles

	Cl                2.536e-02   7.690e-03
	Mg                1.015e-01   3.077e-02
	Na                7.612e-02   2.308e-02
	S                 1.268e-01   3.846e-02

----------------------------Description of solution----------------------------

                                       pH  =   8.031      Charge balance
                                       pe  =   4.000      Adjusted to redox equilibrium
      Specific Conductance (µS/cm,  -0°C)  = 9863
                          Density (g/cm³)  =   1.01732
                               Volume (L)  =   0.30322
                        Activity of water  =   0.996
                 Ionic strength (mol/kgw)  =   5.074e-01
                       Mass of water (kg)  =   3.032e-01
                 Total alkalinity (eq/kg)  =   6.569e-07
                         Temperature (°C)  =  -0.40
                  Electrical balance (eq)  =   9.801e-06
 Percent error, 100*(Cat-|An|)/(Cat+|An|)  =   0.01
                               Iterations  =  10 (1414 overall)
                         Gamma iterations  =   1
                      Osmotic coefficient  =   0.64557
                         Density of water  =   0.99981
                                  Total H  = 3.366339e+01
                                  Total O  = 1.698554e+01

----------------------------Distribution of species----------------------------

                                                    Unscaled  Unscaled
                                Unscaled       Log       Log       Log    mole V
   Species          Molality    Activity  Molality  Activity     Gamma    cm³/mol

   OH-             2.213e-07   1.186e-07    -6.655    -6.926    -0.271     -5.17
   H+              1.605e-08   9.312e-09    -7.795    -8.031    -0.236      0.00
   H2O             5.551e+01   9.962e-01     1.744    -0.002     0.000     18.02
Cl            2.536e-02
   Cl-             2.536e-02   1.725e-02    -1.596    -1.763    -0.167     16.96
Mg            1.015e-01
   Mg+2            1.015e-01   1.749e-02    -0.994    -1.757    -0.763    -19.76
   MgOH+           4.516e-07   2.573e-07    -6.345    -6.590    -0.244     (0)  
Na            7.612e-02
   Na+             7.612e-02   4.622e-02    -1.119    -1.335    -0.217     -2.47
S(6)          1.268e-01
   SO4-2           1.268e-01   2.025e-02    -0.897    -1.694    -0.797     12.24

------------------------------Saturation indices-------------------------------

  Phase               SI** log IAP   log K(272 K,   1 atm)

  Bischofite      -10.04     -5.29    4.75  MgCl2:6H2O
  Bloedite         -5.36     -7.82   -2.46  Na2Mg(SO4)2:4H2O
  Epsomite         -1.25     -3.46   -2.22  MgSO4:7H2O
  Halite           -4.59     -3.10    1.49  NaCl
  Hexahydrite      -1.76     -3.46   -1.70  MgSO4:6H2O
  Hydrohalite      -4.35     -3.10    1.25  NaCl:2H2O
  Ice(s)            0.00     -0.00   -0.00  H2O
  Kieserite        -4.02     -3.45    0.57  MgSO4:H2O
  Meridianite      -1.13     -3.47   -2.34  MgSO4:11H2O
  MgCl2:12H2O      -8.13     -5.30    2.82  MgCl2:12H2O
  MgCl2:8H2O       -9.14     -5.30    3.84  MgCl2:8H2O
  Mirabilite       -1.85     -4.38   -2.53  Na2SO4:10H2O
  Thenardite       -4.05     -4.36   -0.31  Na2SO4

**For a gas, SI = log10(fugacity). Fugacity = pressure * phi / 1 atm.
  For ideal gases, phi = 1.

Reaction step 6.

Using solution 1.	
Using pure phase assemblage 1.	
Using temperature 1.	

-------------------------------Phase assemblage--------------------------------

                                                      Moles in assemblage
Phase               SI  log IAP  log K(T, P)   Initial       Final       Delta

Anhydrite            Element not present.    0.000e+00           0   0.000e+00
Antarcticite         Element not present.    0.000e+00           0   0.000e+00
Aphthitalite         Element not present.    0.000e+00           0   0.000e+00
Aragonite            Element not present.    0.000e+00           0   0.000e+00
Arcanite             Element not present.    0.000e+00           0   0.000e+00
Bischofite       -9.79    -5.04      4.75    0.000e+00           0   0.000e+00
Bloedite         -5.04    -7.50     -2.46    0.000e+00           0   0.000e+00
Calcite              Element not present.    0.000e+00           0   0.000e+00
Carnallite           Element not present.    0.000e+00           0   0.000e+00
Dolomite             Element not present.    0.000e+00           0   0.000e+00
Epsomite         -1.15    -3.37     -2.22    0.000e+00           0   0.000e+00
Gypsum               Element not present.    0.000e+00           0   0.000e+00
Halite           -4.40    -2.90      1.49    0.000e+00           0   0.000e+00
Hexahydrite      -1.66    -3.37     -1.70    0.000e+00           0   0.000e+00
Hydrohalite      -4.16    -2.91      1.25    0.000e+00           0   0.000e+00
Hydromagnesite       Element not present.    0.000e+00           0   0.000e+00
Ice(s)            0.00    -0.00     -0.00    0.000e+00   4.242e+01   4.242e+01
Ikaite               Element not present.    0.000e+00           0   0.000e+00
Kalicinite           Element not present.    0.000e+00           0   0.000e+00
Kieserite        -3.93    -3.36      0.57    0.000e+00           0   0.000e+00
Landsfordite         Element not present.    0.000e+00           0   0.000e+00
Magnesite            Element not present.    0.000e+00           0   0.000e+00
Meridianite      -1.03    -3.38     -2.34    0.000e+00           0   0.000e+00
MgCl2:12H2O      -7.87    -5.05      2.82    0.000e+00           0   0.000e+00
MgCl2:8H2O       -8.88    -5.04      3.84    0.000e+00           0   0.000e+00
Mirabilite       -1.62    -4.16     -2.54    0.000e+00           0   0.000e+00
Na2CO3:7H2O          Element not present.    0.000e+00           0   0.000e+00
Nahcolite            Element not present.    0.000e+00           0   0.000e+00
Natron               Element not present.    0.000e+00           0   0.000e+00
Nesquehonite         Element not present.    0.000e+00           0   0.000e+00
Picromerite          Element not present.    0.000e+00           0   0.000e+00
Sylvite              Element not present.    0.000e+00           0   0.000e+00
Tachyhydrite         Element not present.    0.000e+00           0   0.000e+00
Thenardite       -3.83    -4.14     -0.31    0.000e+00           0   0.000e+00
Trona                Element not present.    0.000e+00           0   0.000e+00
Vaterite             Element not present.    0.000e+00           0   0.000e+00

-----------------------------Solution composition------------------------------

	Elements           Molality       Moles

	Cl                3.262e-02   7.690e-03
	Mg                1.305e-01   3.077e-02
	Na                9.790e-02   2.308e-02
	S                 1.631e-01   3.846e-02

----------------------------Description of solution----------------------------

                                       pH  =   8.082      Charge balance
                                       pe  =   4.000      Adjusted to redox equilibrium
      Specific Conductance (µS/cm,  -1°C)  = 11837
                          Density (g/cm³)  =   1.02221
                               Volume (L)  =   0.23575
                        Activity of water  =   0.995
                 Ionic strength (mol/kgw)  =   6.526e-01
                       Mass of water (kg)  =   2.357e-01
                 Total alkalinity (eq/kg)  =   8.449e-07
                         Temperature (°C)  =  -0.50
                  Electrical balance (eq)  =   9.801e-06
 Percent error, 100*(Cat-|An|)/(Cat+|An|)  =   0.01
                               Iterations  =  12 (1416 overall)
                         Gamma iterations  =   1
                      Osmotic coefficient  =   0.62786
                         Density of water  =   0.99980
                                  Total H  = 2.617143e+01
                                  Total O  = 1.323956e+01

----------------------------Distribution of species----------------------------

                                                    Unscaled  Unscaled
                                Unscaled       Log       Log       Log    mole V
   Species          Molality    Activity  Molality  Activity     Gamma    cm³/mol

   OH-             2.632e-07   1.320e-07    -6.580    -6.879    -0.300     -4.95
   H+              1.488e-08   8.274e-09    -7.827    -8.082    -0.255      0.00
   H2O             5.551e+01   9.952e-01     1.744    -0.002     0.000     18.02
Cl            3.262e-02
   Cl-             3.262e-02   2.190e-02    -1.487    -1.659    -0.173     17.04
Mg            1.305e-01
   Mg+2            1.305e-01   1.970e-02    -0.884    -1.705    -0.821    -19.67
   MgOH+           5.966e-07   3.225e-07    -6.224    -6.492    -0.267     (0)  
Na            9.790e-02
   Na+             9.790e-02   5.698e-02    -1.009    -1.244    -0.235     -2.33
S(6)          1.631e-01
   SO4-2           1.631e-01   2.244e-02    -0.787    -1.649    -0.862     12.75

------------------------------Saturation indices-------------------------------

  Phase               SI** log IAP   log K(272 K,   1 atm)

  Bischofite       -9.79     -5.04    4.75  MgCl2:6H2O
  Bloedite         -5.04     -7.50   -2.46  Na2Mg(SO4)2:4H2O
  Epsomite         -1.15     -3.37   -2.22  MgSO4:7H2O
  Halite           -4.40     -2.90    1.49  NaCl
  Hexahydrite      -1.66     -3.37   -1.70  MgSO4:6H2O
  Hydrohalite      -4.16     -2.91    1.25  NaCl:2H2O
  Ice(s)            0.00     -0.00   -0.00  H2O
  Kieserite        -3.93     -3.36    0.57  MgSO4:H2O
  Meridianite      -1.03     -3.38   -2.34  MgSO4:11H2O
  MgCl2:12H2O      -7.87     -5.05    2.82  MgCl2:12H2O
  MgCl2:8H2O       -8.88     -5.04    3.84  MgCl2:8H2O
  Mirabilite       -1.62     -4.16   -2.54  Na2SO4:10H2O
  Thenardite       -3.83     -4.14   -0.31  Na2SO4

**For a gas, SI = log10(fugacity). Fugacity = pressure * phi / 1 atm.
  For ideal gases, phi = 1.

Reaction step 7.

Using solution 1.	
Using pure phase assemblage 1.	
Using temperature 1.	

-------------------------------Phase assemblage--------------------------------

                                                      Moles in assemblage
Phase               SI  log IAP  log K(T, P)   Initial       Final       Delta

Anhydrite            Element not present.    0.000e+00           0   0.000e+00
Antarcticite         Element not present.    0.000e+00           0   0.000e+00
Aphthitalite         Element not present.    0.000e+00           0   0.000e+00
Aragonite            Element not present.    0.000e+00           0   0.000e+00
Arcanite             Element not present.    0.000e+00           0   0.000e+00
Bischofite       -9.57    -4.83      4.75    0.000e+00           0   0.000e+00
Bloedite         -4.78    -7.25     -2.46    0.000e+00           0   0.000e+00
Calcite              Element not present.    0.000e+00           0   0.000e+00
Carnallite           Element not present.    0.000e+00           0   0.000e+00
Dolomite             Element not present.    0.000e+00           0   0.000e+00
Epsomite         -1.08    -3.30     -2.22    0.000e+00           0   0.000e+00
Gypsum               Element not present.    0.000e+00           0   0.000e+00
Halite           -4.24    -2.74      1.49    0.000e+00           0   0.000e+00
Hexahydrite      -1.59    -3.29     -1.70    0.000e+00           0   0.000e+00
Hydrohalite      -4.00    -2.75      1.25    0.000e+00           0   0.000e+00
Hydromagnesite       Element not present.    0.000e+00           0   0.000e+00
Ice(s)            0.00    -0.00     -0.00    0.000e+00   4.486e+01   4.486e+01
Ikaite               Element not present.    0.000e+00           0   0.000e+00
Kalicinite           Element not present.    0.000e+00           0   0.000e+00
Kieserite        -3.86    -3.28      0.57    0.000e+00           0   0.000e+00
Landsfordite         Element not present.    0.000e+00           0   0.000e+00
Magnesite            Element not present.    0.000e+00           0   0.000e+00
Meridianite      -0.96    -3.31     -2.35    0.000e+00           0   0.000e+00
MgCl2:12H2O      -7.65    -4.84      2.81    0.000e+00           0   0.000e+00
MgCl2:8H2O       -8.67    -4.83      3.84    0.000e+00           0   0.000e+00
Mirabilite       -1.44    -3.98     -2.54    0.000e+00           0   0.000e+00
Na2CO3:7H2O          Element not present.    0.000e+00           0   0.000e+00
Nahcolite            Element not present.    0.000e+00           0   0.000e+00
Natron               Element not present.    0.000e+00           0   0.000e+00
Nesquehonite         Element not present.    0.000e+00           0   0.000e+00
Picromerite          Element not present.    0.000e+00           0   0.000e+00
Sylvite              Element not present.    0.000e+00           0   0.000e+00
Tachyhydrite         Element not present.    0.000e+00           0   0.000e+00
Thenardite       -3.65    -3.96     -0.31    0.000e+00           0   0.000e+00
Trona                Element not present.    0.000e+00           0   0.000e+00
Vaterite             Element not present.    0.000e+00           0   0.000e+00

-----------------------------Solution composition------------------------------

	Elements           Molality       Moles

	Cl                4.007e-02   7.690e-03
	Mg                1.603e-01   3.077e-02
	Na                1.203e-01   2.308e-02
	S                 2.004e-01   3.846e-02

----------------------------Description of solution----------------------------

                                       pH  =   8.124      Charge balance
                                       pe  =   4.000      Adjusted to redox equilibrium
      Specific Conductance (µS/cm,  -1°C)  = 13636
                          Density (g/cm³)  =   1.02719
                               Volume (L)  =   0.19196
                        Activity of water  =   0.994
                 Ionic strength (mol/kgw)  =   8.016e-01
                       Mass of water (kg)  =   1.919e-01
                 Total alkalinity (eq/kg)  =   1.038e-06
                         Temperature (°C)  =  -0.60
                  Electrical balance (eq)  =   9.801e-06
 Percent error, 100*(Cat-|An|)/(Cat+|An|)  =   0.01
                               Iterations  =  13 (1417 overall)
                         Gamma iterations  =   1
                      Osmotic coefficient  =   0.61376
                         Density of water  =   0.99980
                                  Total H  = 2.130793e+01
                                  Total O  = 1.080781e+01

----------------------------Distribution of species----------------------------

                                                    Unscaled  Unscaled
                                Unscaled       Log       Log       Log    mole V
   Species          Molality    Activity  Molality  Activity     Gamma    cm³/mol

   OH-             3.040e-07   1.437e-07    -6.517    -6.842    -0.325     -4.74
   H+              1.400e-08   7.515e-09    -7.854    -8.124    -0.270      0.00
   H2O             5.551e+01   9.943e-01     1.744    -0.003     0.000     18.02
Cl            4.007e-02
   Cl-             4.007e-02   2.671e-02    -1.397    -1.573    -0.176     17.11
Mg            1.603e-01
   Mg+2            1.603e-01   2.166e-02    -0.795    -1.664    -0.869    -19.58
   MgOH+           7.477e-07   3.859e-07    -6.126    -6.413    -0.287     (0)  
Na            1.203e-01
   Na+             1.203e-01   6.744e-02    -0.920    -1.171    -0.251     -2.20
S(6)          2.004e-01
   SO4-2           2.004e-01   2.427e-02    -0.698    -1.615    -0.917     13.21

------------------------------Saturation indices-------------------------------

  Phase               SI** log IAP   log K(272 K,   1 atm)

  Bischofite       -9.57     -4.83    4.75  MgCl2:6H2O
  Bloedite         -4.78     -7.25   -2.46  Na2Mg(SO4)2:4H2O
  Epsomite         -1.08     -3.30   -2.22  MgSO4:7H2O
  Halite           -4.24     -2.74    1.49  NaCl
  Hexahydrite      -1.59     -3.29   -1.70  MgSO4:6H2O
  Hydrohalite      -4.00     -2.75    1.25  NaCl:2H2O
  Ice(s)            0.00     -0.00   -0.00  H2O
  Kieserite        -3.86     -3.28    0.57  MgSO4:H2O
  Meridianite      -0.96     -3.31   -2.35  MgSO4:11H2O
  MgCl2:12H2O      -7.65     -4.84    2.81  MgCl2:12H2O
  MgCl2:8H2O       -8.67     -4.83    3.84  MgCl2:8H2O
  Mirabilite       -1.44     -3.98   -2.54  Na2SO4:10H2O
  Thenardite       -3.65     -3.96   -0.31  Na2SO4

**For a gas, SI = log10(fugacity). Fugacity = pressure * phi / 1 atm.
  For ideal gases, phi = 1.

Reaction step 8.

Using solution 1.	
Using pure phase assemblage 1.	
Using temperature 1.	

-------------------------------Phase assemblage--------------------------------

                                                      Moles in assemblage
Phase               SI  log IAP  log K(T, P)   Initial       Final       Delta

Anhydrite            Element not present.    0.000e+00           0   0.000e+00
Antarcticite         Element not present.    0.000e+00           0   0.000e+00
Aphthitalite         Element not present.    0.000e+00           0   0.000e+00
Aragonite            Element not present.    0.000e+00           0   0.000e+00
Arcanite             Element not present.    0.000e+00           0   0.000e+00
Bischofite       -9.40    -4.65      4.75    0.000e+00           0   0.000e+00
Bloedite         -4.57    -7.04     -2.46    0.000e+00           0   0.000e+00
Calcite              Element not present.    0.000e+00           0   0.000e+00
Carnallite           Element not present.    0.000e+00           0   0.000e+00
Dolomite             Element not present.    0.000e+00           0   0.000e+00
Epsomite         -1.02    -3.24     -2.22    0.000e+00           0   0.000e+00
Gypsum               Element not present.    0.000e+00           0   0.000e+00
Halite           -4.10    -2.61      1.49    0.000e+00           0   0.000e+00
Hexahydrite      -1.53    -3.24     -1.70    0.000e+00           0   0.000e+00
Hydrohalite      -3.86    -2.62      1.24    0.000e+00           0   0.000e+00
Hydromagnesite       Element not present.    0.000e+00           0   0.000e+00
Ice(s)            0.00    -0.00     -0.00    0.000e+00   4.655e+01   4.655e+01
Ikaite               Element not present.    0.000e+00           0   0.000e+00
Kalicinite           Element not present.    0.000e+00           0   0.000e+00
Kieserite        -3.80    -3.22      0.58    0.000e+00           0   0.000e+00
Landsfordite         Element not present.    0.000e+00           0   0.000e+00
Magnesite            Element not present.    0.000e+00           0   0.000e+00
Meridianite      -0.90    -3.25     -2.35    0.000e+00           0   0.000e+00
MgCl2:12H2O      -7.47    -4.66      2.80    0.000e+00           0   0.000e+00
MgCl2:8H2O       -8.49    -4.65      3.84    0.000e+00           0   0.000e+00
Mirabilite       -1.29    -3.84     -2.55    0.000e+00           0   0.000e+00
Na2CO3:7H2O          Element not present.    0.000e+00           0   0.000e+00
Nahcolite            Element not present.    0.000e+00           0   0.000e+00
Natron               Element not present.    0.000e+00           0   0.000e+00
Nesquehonite         Element not present.    0.000e+00           0   0.000e+00
Picromerite          Element not present.    0.000e+00           0   0.000e+00
Sylvite              Element not present.    0.000e+00           0   0.000e+00
Tachyhydrite         Element not present.    0.000e+00           0   0.000e+00
Thenardite       -3.50    -3.81     -0.31    0.000e+00           0   0.000e+00
Trona                Element not present.    0.000e+00           0   0.000e+00
Vaterite             Element not present.    0.000e+00           0   0.000e+00

-----------------------------Solution composition------------------------------

	Elements           Molality       Moles

	Cl                4.767e-02   7.690e-03
	Mg                1.907e-01   3.077e-02
	Na                1.431e-01   2.308e-02
	S                 2.384e-01   3.846e-02

----------------------------Description of solution----------------------------

                                       pH  =   8.159      Charge balance
                                       pe  =   4.000      Adjusted to redox equilibrium
      Specific Conductance (µS/cm,  -1°C)  = 15275
                          Density (g/cm³)  =   1.03224
                               Volume (L)  =   0.16137
                        Activity of water  =   0.993
                 Ionic strength (mol/kgw)  =   9.536e-01
                       Mass of water (kg)  =   1.613e-01
                 Total alkalinity (eq/kg)  =   1.235e-06
                         Temperature (°C)  =  -0.70
                  Electrical balance (eq)  =   9.801e-06
 Percent error, 100*(Cat-|An|)/(Cat+|An|)  =   0.01
                               Iterations  =  13 (1417 overall)
                         Gamma iterations  =   1
                      Osmotic coefficient  =   0.60214
                         Density of water  =   0.99979
                                  Total H  = 1.791043e+01
                                  Total O  = 9.109056e+00

----------------------------Distribution of species----------------------------

                                                    Unscaled  Unscaled
                                Unscaled       Log       Log       Log    mole V
   Species          Molality    Activity  Molality  Activity     Gamma    cm³/mol

   OH-             3.440e-07   1.541e-07    -6.463    -6.812    -0.349     -4.53
   H+              1.329e-08   6.932e-09    -7.876    -8.159    -0.283      0.00
   H2O             5.551e+01   9.933e-01     1.744    -0.003     0.000     18.02
Cl            4.767e-02
   Cl-             4.767e-02   3.166e-02    -1.322    -1.499    -0.178     17.17
Mg            1.907e-01
   Mg+2            1.907e-01   2.345e-02    -0.720    -1.630    -0.910    -19.50
   MgOH+           9.038e-07   4.477e-07    -6.044    -6.349    -0.305     (0)  
Na            1.431e-01
   Na+             1.431e-01   7.761e-02    -0.844    -1.110    -0.266     -2.08
S(6)          2.384e-01
   SO4-2           2.384e-01   2.584e-02    -0.623    -1.588    -0.965     13.63

------------------------------Saturation indices-------------------------------

  Phase               SI** log IAP   log K(272 K,   1 atm)

  Bischofite       -9.40     -4.65    4.75  MgCl2:6H2O
  Bloedite         -4.57     -7.04   -2.46  Na2Mg(SO4)2:4H2O
  Epsomite         -1.02     -3.24   -2.22  MgSO4:7H2O
  Halite           -4.10     -2.61    1.49  NaCl
  Hexahydrite      -1.53     -3.24   -1.70  MgSO4:6H2O
  Hydrohalite      -3.86     -2.62    1.24  NaCl:2H2O
  Ice(s)            0.00     -0.00   -0.00  H2O
  Kieserite        -3.80     -3.22    0.58  MgSO4:H2O
  Meridianite      -0.90     -3.25   -2.35  MgSO4:11H2O
  MgCl2:12H2O      -7.47     -4.66    2.80  MgCl2:12H2O
  MgCl2:8H2O       -8.49     -4.65    3.84  MgCl2:8H2O
  Mirabilite       -1.29     -3.84   -2.55  Na2SO4:10H2O
  Thenardite       -3.50     -3.81   -0.31  Na2SO4

**For a gas, SI = log10(fugacity). Fugacity = pressure * phi / 1 atm.
  For ideal gases, phi = 1.

Reaction step 9.

Using solution 1.	
Using pure phase assemblage 1.	
Using temperature 1.	

-------------------------------Phase assemblage--------------------------------

                                                      Moles in assemblage
Phase               SI  log IAP  log K(T, P)   Initial       Final       Delta

Anhydrite            Element not present.    0.000e+00           0   0.000e+00
Antarcticite         Element not present.    0.000e+00           0   0.000e+00
Aphthitalite         Element not present.    0.000e+00           0   0.000e+00
Aragonite            Element not present.    0.000e+00           0   0.000e+00
Arcanite             Element not present.    0.000e+00           0   0.000e+00
Bischofite       -9.24    -4.49      4.75    0.000e+00           0   0.000e+00
Bloedite         -4.40    -6.86     -2.46    0.000e+00           0   0.000e+00
Calcite              Element not present.    0.000e+00           0   0.000e+00
Carnallite           Element not present.    0.000e+00           0   0.000e+00
Dolomite             Element not present.    0.000e+00           0   0.000e+00
Epsomite         -0.97    -3.19     -2.22    0.000e+00           0   0.000e+00
Gypsum               Element not present.    0.000e+00           0   0.000e+00
Halite           -3.98    -2.49      1.49    0.000e+00           0   0.000e+00
Hexahydrite      -1.48    -3.19     -1.70    0.000e+00           0   0.000e+00
Hydrohalite      -3.74    -2.50      1.24    0.000e+00           0   0.000e+00
Hydromagnesite       Element not present.    0.000e+00           0   0.000e+00
Ice(s)            0.00    -0.00     -0.00    0.000e+00   4.780e+01   4.780e+01
Ikaite               Element not present.    0.000e+00           0   0.000e+00
Kalicinite           Element not present.    0.000e+00           0   0.000e+00
Kieserite        -3.75    -3.17      0.58    0.000e+00           0   0.000e+00
Landsfordite         Element not present.    0.000e+00           0   0.000e+00
Magnesite            Element not present.    0.000e+00           0   0.000e+00
Meridianite      -0.85    -3.20     -2.36    0.000e+00           0   0.000e+00
MgCl2:12H2O      -7.31    -4.51      2.80    0.000e+00           0   0.000e+00
MgCl2:8H2O       -8.33    -4.50      3.84    0.000e+00           0   0.000e+00
Mirabilite       -1.16    -3.71     -2.55    0.000e+00           0   0.000e+00
Na2CO3:7H2O          Element not present.    0.000e+00           0   0.000e+00
Nahcolite            Element not present.    0.000e+00           0   0.000e+00
Natron               Element not present.    0.000e+00           0   0.000e+00
Nesquehonite         Element not present.    0.000e+00           0   0.000e+00
Picromerite          Element not present.    0.000e+00           0   0.000e+00
Sylvite              Element not present.    0.000e+00           0   0.000e+00
Tachyhydrite         Element not present.    0.000e+00           0   0.000e+00
Thenardite       -3.37    -3.68     -0.31    0.000e+00           0   0.000e+00
Trona                Element not present.    0.000e+00           0   0.000e+00
Vaterite             Element not present.    0.000e+00           0   0.000e+00

-----------------------------Solution composition------------------------------

	Elements           Molality       Moles

	Cl                5.539e-02   7.690e-03
	Mg                2.217e-01   3.077e-02
	Na                1.663e-01   2.308e-02
	S                 2.770e-01   3.846e-02

----------------------------Description of solution----------------------------

                                       pH  =   8.189      Charge balance
                                       pe  =   4.000      Adjusted to redox equilibrium
      Specific Conductance (µS/cm,  -1°C)  = 16766
                          Density (g/cm³)  =   1.03734
                               Volume (L)  =   0.13888
                        Activity of water  =   0.992
                 Ionic strength (mol/kgw)  =   1.108e+00
                       Mass of water (kg)  =   1.388e-01
                 Total alkalinity (eq/kg)  =   1.435e-06
                         Temperature (°C)  =  -0.80
                  Electrical balance (eq)  =   9.801e-06
 Percent error, 100*(Cat-|An|)/(Cat+|An|)  =   0.01
                               Iterations  =  14 (1418 overall)
                         Gamma iterations  =   1
                      Osmotic coefficient  =   0.59235
                         Density of water  =   0.99978
                                  Total H  = 1.541177e+01
                                  Total O  = 7.859726e+00

----------------------------Distribution of species----------------------------

                                                    Unscaled  Unscaled
                                Unscaled       Log       Log       Log    mole V
   Species          Molality    Activity  Molality  Activity     Gamma    cm³/mol

   OH-             3.834e-07   1.634e-07    -6.416    -6.787    -0.370     -4.32
   H+              1.270e-08   6.466e-09    -7.896    -8.189    -0.293      0.00
   H2O             5.551e+01   9.923e-01     1.744    -0.003     0.000     18.02
Cl            5.539e-02
   Cl-             5.539e-02   3.679e-02    -1.257    -1.434    -0.178     17.24
Mg            2.217e-01
   Mg+2            2.217e-01   2.509e-02    -0.654    -1.600    -0.946    -19.42
   MgOH+           1.064e-06   5.078e-07    -5.973    -6.294    -0.321     (0)  
Na            1.663e-01
   Na+             1.663e-01   8.751e-02    -0.779    -1.058    -0.279     -1.96
S(6)          2.770e-01
   SO4-2           2.770e-01   2.721e-02    -0.557    -1.565    -1.008     14.03

------------------------------Saturation indices-------------------------------

  Phase               SI** log IAP   log K(272 K,   1 atm)

  Bischofite       -9.24     -4.49    4.75  MgCl2:6H2O
  Bloedite         -4.40     -6.86   -2.46  Na2Mg(SO4)2:4H2O
  Epsomite         -0.97     -3.19   -2.22  MgSO4:7H2O
  Halite           -3.98     -2.49    1.49  NaCl
  Hexahydrite      -1.48     -3.19   -1.70  MgSO4:6H2O
  Hydrohalite      -3.74     -2.50    1.24  NaCl:2H2O
  Ice(s)            0.00     -0.00   -0.00  H2O
  Kieserite        -3.75     -3.17    0.58  MgSO4:H2O
  Meridianite      -0.85     -3.20   -2.36  MgSO4:11H2O
  MgCl2:12H2O      -7.31     -4.51    2.80  MgCl2:12H2O
  MgCl2:8H2O       -8.33     -4.50    3.84  MgCl2:8H2O
  Mirabilite       -1.16     -3.71   -2.55  Na2SO4:10H2O
  Thenardite       -3.37     -3.68   -0.31  Na2SO4

**For a gas, SI = log10(fugacity). Fugacity = pressure * phi / 1 atm.
  For ideal gases, phi = 1.

Reaction step 10.

Using solution 1.	
Using pure phase assemblage 1.	
Using temperature 1.	

-------------------------------Phase assemblage--------------------------------

                                                      Moles in assemblage
Phase               SI  log IAP  log K(T, P)   Initial       Final       Delta

Anhydrite            Element not present.    0.000e+00           0   0.000e+00
Antarcticite         Element not present.    0.000e+00           0   0.000e+00
Aphthitalite         Element not present.    0.000e+00           0   0.000e+00
Aragonite            Element not present.    0.000e+00           0   0.000e+00
Arcanite             Element not present.    0.000e+00           0   0.000e+00
Bischofite       -9.10    -4.35      4.75    0.000e+00           0   0.000e+00
Bloedite         -4.24    -6.71     -2.46    0.000e+00           0   0.000e+00
Calcite              Element not present.    0.000e+00           0   0.000e+00
Carnallite           Element not present.    0.000e+00           0   0.000e+00
Dolomite             Element not present.    0.000e+00           0   0.000e+00
Epsomite         -0.92    -3.15     -2.22    0.000e+00           0   0.000e+00
Gypsum               Element not present.    0.000e+00           0   0.000e+00
Halite           -3.88    -2.39      1.49    0.000e+00           0   0.000e+00
Hexahydrite      -1.44    -3.14     -1.70    0.000e+00           0   0.000e+00
Hydrohalite      -3.64    -2.40      1.24    0.000e+00           0   0.000e+00
Hydromagnesite       Element not present.    0.000e+00           0   0.000e+00
Ice(s)            0.00    -0.00     -0.00    0.000e+00   4.876e+01   4.876e+01
Ikaite               Element not present.    0.000e+00           0   0.000e+00
Kalicinite           Element not present.    0.000e+00           0   0.000e+00
Kieserite        -3.71    -3.12      0.59    0.000e+00           0   0.000e+00
Landsfordite         Element not present.    0.000e+00           0   0.000e+00
Magnesite            Element not present.    0.000e+00           0   0.000e+00
Meridianite      -0.80    -3.16     -2.36    0.000e+00           0   0.000e+00
MgCl2:12H2O      -7.16    -4.37      2.79    0.000e+00           0   0.000e+00
MgCl2:8H2O       -8.19    -4.36      3.84    0.000e+00           0   0.000e+00
Mirabilite       -1.05    -3.61     -2.56    0.000e+00           0   0.000e+00
Na2CO3:7H2O          Element not present.    0.000e+00           0   0.000e+00
Nahcolite            Element not present.    0.000e+00           0   0.000e+00
Natron               Element not present.    0.000e+00           0   0.000e+00
Nesquehonite         Element not present.    0.000e+00           0   0.000e+00
Picromerite          Element not present.    0.000e+00           0   0.000e+00
Sylvite              Element not present.    0.000e+00           0   0.000e+00
Tachyhydrite         Element not present.    0.000e+00           0   0.000e+00
Thenardite       -3.26    -3.57     -0.31    0.000e+00           0   0.000e+00
[...]
Aphthitalite         Element not present.    0.000e+00           0   0.000e+00
Aragonite            Element not present.    0.000e+00           0   0.000e+00
Arcanite             Element not present.    0.000e+00           0   0.000e+00
Bischofite       -2.70     1.89      4.59    0.000e+00           0   0.000e+00
Bloedite         -2.99    -5.56     -2.57    0.000e+00           0   0.000e+00
Calcite              Element not present.    0.000e+00           0   0.000e+00
Carnallite           Element not present.    0.000e+00           0   0.000e+00
Dolomite             Element not present.    0.000e+00           0   0.000e+00
Epsomite         -0.35    -3.08     -2.73    0.000e+00           0   0.000e+00
Gypsum               Element not present.    0.000e+00           0   0.000e+00
Halite           -0.29     0.97      1.26    0.000e+00           0   0.000e+00
Hexahydrite      -1.15    -2.94     -1.80    0.000e+00           0   0.000e+00
Hydrohalite      -0.01     0.70      0.71    0.000e+00           0   0.000e+00
Hydromagnesite       Element not present.    0.000e+00           0   0.000e+00
Ice(s)            0.00    -0.13     -0.13    0.000e+00   5.502e+01   5.502e+01
Ikaite               Element not present.    0.000e+00           0   0.000e+00
Kalicinite           Element not present.    0.000e+00           0   0.000e+00
Kieserite        -4.83    -2.27      2.56    0.000e+00           0   0.000e+00
Landsfordite         Element not present.    0.000e+00           0   0.000e+00
Magnesite            Element not present.    0.000e+00           0   0.000e+00
Meridianite       0.00    -3.61     -3.61    0.000e+00   2.776e-02   2.776e-02
MgCl2:12H2O      -0.29     1.08      1.37    0.000e+00           0   0.000e+00
MgCl2:8H2O       -1.47     1.62      3.09    0.000e+00           0   0.000e+00
Mirabilite        0.00    -4.23     -4.23    0.000e+00   1.061e-02   1.061e-02
Na2CO3:7H2O          Element not present.    0.000e+00           0   0.000e+00
Nahcolite            Element not present.    0.000e+00           0   0.000e+00
Natron               Element not present.    0.000e+00           0   0.000e+00
Nesquehonite         Element not present.    0.000e+00           0   0.000e+00
Picromerite          Element not present.    0.000e+00           0   0.000e+00
Sylvite              Element not present.    0.000e+00           0   0.000e+00
Tachyhydrite         Element not present.    0.000e+00           0   0.000e+00
Thenardite       -2.55    -2.89     -0.34    0.000e+00           0   0.000e+00
Trona                Element not present.    0.000e+00           0   0.000e+00
Vaterite             Element not present.    0.000e+00           0   0.000e+00

-----------------------------Solution composition------------------------------

	Elements           Molality       Moles

	Cl                5.697e+00   7.690e-03
	Mg                2.228e+00   3.008e-03
	Na                1.378e+00   1.860e-03
	S                 6.488e-02   8.759e-05

----------------------------Description of solution----------------------------

                                       pH  =   9.908      Charge balance
                                       pe  =   4.000      Adjusted to redox equilibrium
      Specific Conductance (µS/cm, -32°C)  = 14379
                          Density (g/cm³)  =   1.25519
                               Volume (L)  =   0.00139
                        Activity of water  =   0.734
                 Ionic strength (mol/kgw)  =   8.123e+00
                       Mass of water (kg)  =   1.350e-03
                 Total alkalinity (eq/kg)  =   1.476e-04
                         Temperature (°C)  = -31.70
                  Electrical balance (eq)  =   9.801e-06
 Percent error, 100*(Cat-|An|)/(Cat+|An|)  =   0.06
                               Iterations  =  58 (1462 overall)
                         Gamma iterations  =   1
                      Osmotic coefficient  =   1.82845
                         Density of water  =   0.98215
                                  Total H  = 1.498604e-01
                                  Total O  = 7.528062e-02

----------------------------Distribution of species----------------------------

                                                    Unscaled  Unscaled
                                Unscaled       Log       Log       Log    mole V
   Species          Molality    Activity  Molality  Activity     Gamma    cm³/mol

   OH-             2.462e-06   1.519e-07    -5.609    -6.818    -1.210    -13.07
   H+              2.133e-11   1.237e-10   -10.671    -9.908     0.763      0.00
   H2O             5.551e+01   7.345e-01     1.744    -0.134     0.000     18.34
Cl            5.697e+00
   Cl-             5.697e+00   1.314e+01     0.756     1.119     0.363     13.26
Mg            2.228e+00
   Mg+2            2.228e+00   2.831e+00     0.348     0.452     0.104    -25.42
   MgOH+           1.451e-04   5.782e-05    -3.838    -4.238    -0.400     (0)  
Na            1.378e+00
   Na+             1.378e+00   7.087e-01     0.139    -0.150    -0.289     -3.62
S(6)          6.488e-02
   SO4-2           6.488e-02   2.576e-03    -1.188    -2.589    -1.401    -17.41

------------------------------Saturation indices-------------------------------

  Phase               SI** log IAP   log K(241 K,   1 atm)

  Bischofite       -2.70      1.89    4.59  MgCl2:6H2O
  Bloedite         -2.99     -5.56   -2.57  Na2Mg(SO4)2:4H2O
  Epsomite         -0.35     -3.08   -2.73  MgSO4:7H2O
  Halite           -0.29      0.97    1.26  NaCl
  Hexahydrite      -1.15     -2.94   -1.80  MgSO4:6H2O
  Hydrohalite      -0.01      0.70    0.71  NaCl:2H2O
  Ice(s)            0.00     -0.13   -0.13  H2O
  Kieserite        -4.83     -2.27    2.56  MgSO4:H2O
  Meridianite       0.00     -3.61   -3.61  MgSO4:11H2O
  MgCl2:12H2O      -0.29      1.08    1.37  MgCl2:12H2O
  MgCl2:8H2O       -1.47      1.62    3.09  MgCl2:8H2O
  Mirabilite        0.00     -4.23   -4.23  Na2SO4:10H2O
  Thenardite       -2.55     -2.89   -0.34  Na2SO4

**For a gas, SI = log10(fugacity). Fugacity = pressure * phi / 1 atm.
  For ideal gases, phi = 1.

Reaction step 319.

Using solution 1.	
Using pure phase assemblage 1.	
Using temperature 1.	

-------------------------------Phase assemblage--------------------------------

                                                      Moles in assemblage
Phase               SI  log IAP  log K(T, P)   Initial       Final       Delta

Anhydrite            Element not present.    0.000e+00           0   0.000e+00
Antarcticite         Element not present.    0.000e+00           0   0.000e+00
Aphthitalite         Element not present.    0.000e+00           0   0.000e+00
Aragonite            Element not present.    0.000e+00           0   0.000e+00
Arcanite             Element not present.    0.000e+00           0   0.000e+00
Bischofite       -2.70     1.89      4.59    0.000e+00           0   0.000e+00
Bloedite         -2.99    -5.56     -2.57    0.000e+00           0   0.000e+00
Calcite              Element not present.    0.000e+00           0   0.000e+00
Carnallite           Element not present.    0.000e+00           0   0.000e+00
Dolomite             Element not present.    0.000e+00           0   0.000e+00
Epsomite         -0.35    -3.08     -2.73    0.000e+00           0   0.000e+00
Gypsum               Element not present.    0.000e+00           0   0.000e+00
Halite           -0.29     0.97      1.26    0.000e+00           0   0.000e+00
Hexahydrite      -1.15    -2.94     -1.80    0.000e+00           0   0.000e+00
Hydrohalite      -0.00     0.70      0.71    0.000e+00           0   0.000e+00
Hydromagnesite       Element not present.    0.000e+00           0   0.000e+00
Ice(s)            0.00    -0.13     -0.13    0.000e+00   5.502e+01   5.502e+01
Ikaite               Element not present.    0.000e+00           0   0.000e+00
Kalicinite           Element not present.    0.000e+00           0   0.000e+00
Kieserite        -4.84    -2.27      2.57    0.000e+00           0   0.000e+00
Landsfordite         Element not present.    0.000e+00           0   0.000e+00
Magnesite            Element not present.    0.000e+00           0   0.000e+00
Meridianite       0.00    -3.62     -3.62    0.000e+00   2.776e-02   2.776e-02
MgCl2:12H2O      -0.28     1.08      1.36    0.000e+00           0   0.000e+00
MgCl2:8H2O       -1.46     1.62      3.09    0.000e+00           0   0.000e+00
Mirabilite        0.00    -4.23     -4.23    0.000e+00   1.061e-02   1.061e-02
Na2CO3:7H2O          Element not present.    0.000e+00           0   0.000e+00
Nahcolite            Element not present.    0.000e+00           0   0.000e+00
Natron               Element not present.    0.000e+00           0   0.000e+00
Nesquehonite         Element not present.    0.000e+00           0   0.000e+00
Picromerite          Element not present.    0.000e+00           0   0.000e+00
Sylvite              Element not present.    0.000e+00           0   0.000e+00
Tachyhydrite         Element not present.    0.000e+00           0   0.000e+00
Thenardite       -2.55    -2.89     -0.34    0.000e+00           0   0.000e+00
Trona                Element not present.    0.000e+00           0   0.000e+00
Vaterite             Element not present.    0.000e+00           0   0.000e+00

-----------------------------Solution composition------------------------------

	Elements           Molality       Moles

	Cl                5.708e+00   7.690e-03
	Mg                2.231e+00   3.006e-03
	Na                1.382e+00   1.862e-03
	S                 6.435e-02   8.669e-05

----------------------------Description of solution----------------------------

                                       pH  =   9.910      Charge balance
                                       pe  =   4.000      Adjusted to redox equilibrium
      Specific Conductance (µS/cm, -32°C)  = 14261
                          Density (g/cm³)  =   1.25614
                               Volume (L)  =   0.00139
                        Activity of water  =   0.734
                 Ionic strength (mol/kgw)  =   8.136e+00
                       Mass of water (kg)  =   1.347e-03
                 Total alkalinity (eq/kg)  =   1.478e-04
                         Temperature (°C)  = -31.80
                  Electrical balance (eq)  =   9.801e-06
 Percent error, 100*(Cat-|An|)/(Cat+|An|)  =   0.06
                               Iterations  =  58 (1462 overall)
                         Gamma iterations  =   1
                      Osmotic coefficient  =   1.83067
                         Density of water  =   0.98201
                                  Total H  = 1.495620e-01
                                  Total O  = 7.512787e-02

----------------------------Distribution of species----------------------------

                                                    Unscaled  Unscaled
                                Unscaled       Log       Log       Log    mole V
   Species          Molality    Activity  Molality  Activity     Gamma    cm³/mol

   OH-             2.458e-06   1.506e-07    -5.609    -6.822    -1.213    -13.24
   H+              2.106e-11   1.229e-10   -10.677    -9.910     0.766      0.00
   H2O             5.551e+01   7.338e-01     1.744    -0.134     0.000     18.35
Cl            5.708e+00
   Cl-             5.708e+00   1.320e+01     0.757     1.120     0.364     13.22
Mg            2.231e+00
   Mg+2            2.231e+00   2.857e+00     0.349     0.456     0.107    -25.55
   MgOH+           1.454e-04   5.793e-05    -3.837    -4.237    -0.400     (0)  
Na            1.382e+00
   Na+             1.382e+00   7.104e-01     0.140    -0.148    -0.289     -3.65
S(6)          6.435e-02
   SO4-2           6.435e-02   2.556e-03    -1.191    -2.593    -1.401    -17.85

------------------------------Saturation indices-------------------------------

  Phase               SI** log IAP   log K(241 K,   1 atm)

  Bischofite       -2.70      1.89    4.59  MgCl2:6H2O
  Bloedite         -2.99     -5.56   -2.57  Na2Mg(SO4)2:4H2O
  Epsomite         -0.35     -3.08   -2.73  MgSO4:7H2O
  Halite           -0.29      0.97    1.26  NaCl
  Hexahydrite      -1.15     -2.94   -1.80  MgSO4:6H2O
  Hydrohalite      -0.00      0.70    0.71  NaCl:2H2O
  Ice(s)            0.00     -0.13   -0.13  H2O
  Kieserite        -4.84     -2.27    2.57  MgSO4:H2O
  Meridianite       0.00     -3.62   -3.62  MgSO4:11H2O
  MgCl2:12H2O      -0.28      1.08    1.36  MgCl2:12H2O
  MgCl2:8H2O       -1.46      1.62    3.09  MgCl2:8H2O
  Mirabilite        0.00     -4.23   -4.23  Na2SO4:10H2O
  Thenardite       -2.55     -2.89   -0.34  Na2SO4

**For a gas, SI = log10(fugacity). Fugacity = pressure * phi / 1 atm.
  For ideal gases, phi = 1.

Reaction step 320.

ERROR:               Ice(s) Pure phase has not converged. 	Residual: -3.091717e-01

Using solution 1.	
Using pure phase assemblage 1.	
Using temperature 1.	

-------------------------------Phase assemblage--------------------------------

                                                      Moles in assemblage
Phase               SI  log IAP  log K(T, P)   Initial       Final       Delta

Anhydrite            Element not present.    0.000e+00           0   0.000e+00
Antarcticite         Element not present.    0.000e+00           0   0.000e+00
Aphthitalite         Element not present.    0.000e+00           0   0.000e+00
Aragonite            Element not present.    0.000e+00           0   0.000e+00
Arcanite             Element not present.    0.000e+00           0   0.000e+00
Bischofite      -13.13    -8.54      4.58    0.000e+00           0   0.000e+00
Bloedite        -14.50   -17.07     -2.57    0.000e+00           0   0.000e+00
Calcite              Element not present.    0.000e+00           0   0.000e+00
Carnallite           Element not present.    0.000e+00           0   0.000e+00
Dolomite             Element not present.    0.000e+00           0   0.000e+00
Epsomite         -5.86    -8.59     -2.73    0.000e+00           0   0.000e+00
Gypsum               Element not present.    0.000e+00           0   0.000e+00
Halite           -5.48    -4.22      1.26    0.000e+00           0   0.000e+00
Hexahydrite      -6.79    -8.59     -1.80    0.000e+00           0   0.000e+00
Hydrohalite      -4.92    -4.22      0.70    0.000e+00           0   0.000e+00
Hydromagnesite       Element not present.    0.000e+00           0   0.000e+00
Ice(s)            0.13    -0.00     -0.13    0.000e+00           0   0.000e+00
Ikaite               Element not present.    0.000e+00           0   0.000e+00
Kalicinite           Element not present.    0.000e+00           0   0.000e+00
Kieserite       -11.16    -8.59      2.58    0.000e+00           0   0.000e+00
Landsfordite         Element not present.    0.000e+00           0   0.000e+00
Magnesite            Element not present.    0.000e+00           0   0.000e+00
Meridianite      -4.97    -8.59     -3.62    0.000e+00   3.072e-02   3.072e-02
MgCl2:12H2O      -9.91    -8.55      1.36    0.000e+00           0   0.000e+00
MgCl2:8H2O      -11.63    -8.55      3.08    0.000e+00           0   0.000e+00
Mirabilite       -4.25    -8.49     -4.24    0.000e+00   7.684e-03   7.684e-03
Na2CO3:7H2O          Element not present.    0.000e+00           0   0.000e+00
Nahcolite            Element not present.    0.000e+00           0   0.000e+00
Natron               Element not present.    0.000e+00           0   0.000e+00
Nesquehonite         Element not present.    0.000e+00           0   0.000e+00
Picromerite          Element not present.    0.000e+00           0   0.000e+00
Sylvite              Element not present.    0.000e+00           0   0.000e+00
Tachyhydrite         Element not present.    0.000e+00           0   0.000e+00
Thenardite       -8.15    -8.48     -0.34    0.000e+00           0   0.000e+00
Trona                Element not present.    0.000e+00           0   0.000e+00
Vaterite             Element not present.    0.000e+00           0   0.000e+00

-----------------------------Solution composition------------------------------

	Elements           Molality       Moles

	Cl                7.748e-03   7.690e-03
	Mg                4.800e-05   4.764e-05
	Na                7.770e-03   7.712e-03
	S                 5.422e-05   5.381e-05

----------------------------Description of solution----------------------------

                                       pH  =   9.905      Charge balance
                                       pe  =   4.000      Adjusted to redox equilibrium
      Specific Conductance (µS/cm, -32°C)  = 79
                          Density (g/cm³)  =   0.98244
                               Volume (L)  =   1.01074
                        Activity of water  =   0.999
                 Ionic strength (mol/kgw)  =   7.964e-03
                       Mass of water (kg)  =   9.925e-01
                 Total alkalinity (eq/kg)  =   2.007e-07
                         Temperature (°C)  = -31.90
                  Electrical balance (eq)  =   9.801e-06
 Percent error, 100*(Cat-|An|)/(Cat+|An|)  =   0.06
                               Iterations  = 401 (3209 overall)
                         Gamma iterations  =   0
                      Osmotic coefficient  =   1.84345
                         Density of water  =   0.98186
                                  Total H  = 1.101890e+02
                                  Total O  = 5.509473e+01

----------------------------Distribution of species----------------------------

                                                    Unscaled  Unscaled
                                Unscaled       Log       Log       Log    mole V
   Species          Molality    Activity  Molality  Activity     Gamma    cm³/mol

   OH-             1.995e-07   1.995e-07    -6.700    -6.700     0.000    -23.89
   H+              1.245e-10   1.245e-10    -9.905    -9.905     0.000      0.00
   H2O             5.551e+01   9.987e-01     1.744    -0.001     0.000     18.35
Cl            7.748e-03
   Cl-             7.748e-03   7.748e-03    -2.111    -2.111     0.000      1.88
Mg            4.800e-05
   Mg+2            4.800e-05   4.800e-05    -4.319    -4.319     0.000    -16.24
   MgOH+           1.290e-09   1.290e-09    -8.889    -8.889     0.000     (0)  
Na            7.770e-03
   Na+             7.770e-03   7.770e-03    -2.110    -2.110     0.000    -17.44
S(6)          5.422e-05
   SO4-2           5.422e-05   5.422e-05    -4.266    -4.266     0.000    -39.94

------------------------------Saturation indices-------------------------------

  Phase               SI** log IAP   log K(241 K,   1 atm)

  Bischofite      -13.13     -8.54    4.58  MgCl2:6H2O
  Bloedite        -14.50    -17.07   -2.57  Na2Mg(SO4)2:4H2O
  Epsomite         -5.86     -8.59   -2.73  MgSO4:7H2O
  Halite           -5.48     -4.22    1.26  NaCl
  Hexahydrite      -6.79     -8.59   -1.80  MgSO4:6H2O
  Hydrohalite      -4.92     -4.22    0.70  NaCl:2H2O
  Ice(s)            0.13     -0.00   -0.13  H2O
  Kieserite       -11.16     -8.59    2.58  MgSO4:H2O
  Meridianite      -4.97     -8.59   -3.62  MgSO4:11H2O
  MgCl2:12H2O      -9.91     -8.55    1.36  MgCl2:12H2O
  MgCl2:8H2O      -11.63     -8.55    3.08  MgCl2:8H2O
  Mirabilite       -4.25     -8.49   -4.24  Na2SO4:10H2O
  Thenardite       -8.15     -8.48   -0.34  Na2SO4

**For a gas, SI = log10(fugacity). Fugacity = pressure * phi / 1 atm.
  For ideal gases, phi = 1.

ERROR: Numerical method failed on all combinations of convergence parameters, cell/soln/mix 1
--------------------------------
End of Run after 55.018 Seconds.
--------------------------------

