   Input file: C:\Users\nswol\Dropbox\Research\Projects\PHREEQC\frezchem_ColdChem\Binary\MgCl2_1ppt.pqi
  Output file: C:\Users\nswol\Dropbox\Research\Projects\PHREEQC\frezchem_ColdChem\Binary\MgCl2_1ppt.pqo
Database file: C:\Program Files (x86)\USGS\Phreeqc Interactive 3.7.3-15968\database\frezchem_ColdChem.dat

------------------
Reading data base.
------------------

	SOLUTION_MASTER_SPECIES								
	SOLUTION_SPECIES								
	PHASES								
	PITZER								
------------------------------------
Reading input data for simulation 1.
------------------------------------

	DATABASE C:\Program Files (x86)\USGS\Phreeqc Interactive 3.7.3-15968\database\frezchem_ColdChem.dat
	TITLE MgCl2 (1 ppt) - frezchem_ColdChem.dat
	SOLUTION
		units	mol/kgw
			Mg	0.0105	
			Cl	0.0210
	EQUILIBRIUM_PHASES
		Halite		0.0	0.0
		Hydrohalite		0.0	0.0
		Sylvite		0.0	0.0
		Bischofite		0.0	0.0
		MgCl2:8H2O		0.0	0.0
		MgCl2:12H2O		0.0	0.0
		Antarcticite	0.0	0.0
		Tachyhydrite	0.0	0.0
		Carnallite		0.0	0.0
		Thenardite		0.0	0.0
		Na2SO4:7H2O		0.0	0.0
		Mirabilite		0.0	0.0
		Arcanite		0.0	0.0
		Kieserite		0.0	0.0
		Starkeyite		0.0	0.0
		Pentahydrite	0.0	0.0
		Hexahydrite		0.0	0.0
		Epsomite		0.0	0.0
		Meridianiite	0.0	0.0
		Anhydrite		0.0	0.0
		Bassanite		0.0	0.0
		Gypsum		0.0	0.0
		Glaserite		0.0	0.0
		Bloedite		0.0	0.0
		Glauberite		0.0	0.0
		Labile_Salt		0.0	0.0
		Leonite		0.0	0.0
		Picromerite		0.0	0.0
		Langbeinite		0.0	0.0
		Syngenite		0.0	0.0
		Kainite		0.0	0.0
		Polyhalite		0.0	0.0
		Ice(s) 		0.0	0.0
	REACTION_TEMPERATURE
	        0 -40.0 in 401 steps
	END
-----
TITLE
-----

 MgCl2 (1 ppt) - frezchem_ColdChem.dat

-------------------------------------------
Beginning of initial solution calculations.
-------------------------------------------

Initial solution 1.	

-----------------------------Solution composition------------------------------

	Elements           Molality       Moles

	Cl                2.100e-02   2.100e-02
	Mg                1.050e-02   1.050e-02

----------------------------Description of solution----------------------------

                                       pH  =   7.000    
                                       pe  =   4.000    
      Specific Conductance (µS/cm,  25°C)  = 2310
                          Density (g/cm³)  =   0.99788
                               Volume (L)  =   1.00312
                        Activity of water  =   0.999
                 Ionic strength (mol/kgw)  =   3.150e-02
                       Mass of water (kg)  =   1.000e+00
                 Total alkalinity (eq/kg)  =  -1.765e-09
                         Temperature (°C)  =  25.00
                  Electrical balance (eq)  =   1.765e-09
 Percent error, 100*(Cat-|An|)/(Cat+|An|)  =   0.00
                               Iterations  =   5
                         Gamma iterations  =   3
                      Osmotic coefficient  =   0.90656
                         Density of water  =   0.99704
                                  Total H  = 1.110186e+02
                                  Total O  = 5.550930e+01

----------------------------Distribution of species----------------------------

                                                    Unscaled  Unscaled
                                Unscaled       Log       Log       Log    mole V
   Species          Molality    Activity  Molality  Activity     Gamma    cm³/mol

   H+              1.219e-07   1.000e-07    -6.914    -7.000    -0.086      0.00
   OH-             1.202e-07   9.995e-08    -6.920    -7.000    -0.080     -3.94
   H2O             5.551e+01   9.995e-01     1.744    -0.000     0.000     18.07
Cl            2.100e-02
   Cl-             2.100e-02   1.808e-02    -1.678    -1.743    -0.065     18.21
Mg            1.050e-02
   Mg+2            1.050e-02   5.386e-03    -1.979    -2.269    -0.290    -21.42

------------------------------Saturation indices-------------------------------

  Phase               SI** log IAP   log K(298 K,   1 atm)

  Bischofite      -10.30     -5.76    4.55  MgCl2:6H2O
  Ice(s)           -0.10     -0.00    0.10  H2O
  MgCl2:12H2O      -9.12     -5.76    3.36  MgCl2:12H2O
  MgCl2:8H2O       -9.89     -5.76    4.14  MgCl2:8H2O

**For a gas, SI = log10(fugacity). Fugacity = pressure * phi / 1 atm.
  For ideal gases, phi = 1.

-----------------------------------------
Beginning of batch-reaction calculations.
-----------------------------------------

Reaction step 1.

WARNING: Element Ca is contained in Anhydrite (which has 0.0 mass),	
but is not in solution or other phases.
WARNING: Element S is contained in Anhydrite (which has 0.0 mass),	
but is not in solution or other phases.
WARNING: Element Ca is contained in Antarcticite (which has 0.0 mass),	
but is not in solution or other phases.
WARNING: Element K is contained in Arcanite (which has 0.0 mass),	
but is not in solution or other phases.
WARNING: Element S is contained in Arcanite (which has 0.0 mass),	
but is not in solution or other phases.
WARNING: Element Ca is contained in Bassanite (which has 0.0 mass),	
but is not in solution or other phases.
WARNING: Element S is contained in Bassanite (which has 0.0 mass),	
but is not in solution or other phases.
WARNING: Element Na is contained in Bloedite (which has 0.0 mass),	
but is not in solution or other phases.
WARNING: Element S is contained in Bloedite (which has 0.0 mass),	
but is not in solution or other phases.
WARNING: Element K is contained in Carnallite (which has 0.0 mass),	
but is not in solution or other phases.
WARNING: Element S is contained in Epsomite (which has 0.0 mass),	
but is not in solution or other phases.
WARNING: Element K is contained in Glaserite (which has 0.0 mass),	
but is not in solution or other phases.
WARNING: Element Na is contained in Glaserite (which has 0.0 mass),	
but is not in solution or other phases.
WARNING: Element S is contained in Glaserite (which has 0.0 mass),	
but is not in solution or other phases.
WARNING: Element Ca is contained in Glauberite (which has 0.0 mass),	
but is not in solution or other phases.
WARNING: Element Na is contained in Glauberite (which has 0.0 mass),	
but is not in solution or other phases.
WARNING: Element S is contained in Glauberite (which has 0.0 mass),	
but is not in solution or other phases.
WARNING: Element Ca is contained in Gypsum (which has 0.0 mass),	
but is not in solution or other phases.
WARNING: Element S is contained in Gypsum (which has 0.0 mass),	
but is not in solution or other phases.
WARNING: Element Na is contained in Halite (which has 0.0 mass),	
but is not in solution or other phases.
WARNING: Element S is contained in Hexahydrite (which has 0.0 mass),	
but is not in solution or other phases.
WARNING: Element Na is contained in Hydrohalite (which has 0.0 mass),	
but is not in solution or other phases.
WARNING: Element K is contained in Kainite (which has 0.0 mass),	
but is not in solution or other phases.
WARNING: Element S is contained in Kainite (which has 0.0 mass),	
but is not in solution or other phases.
WARNING: Element S is contained in Kieserite (which has 0.0 mass),	
but is not in solution or other phases.
WARNING: Element Ca is contained in Labile_Salt (which has 0.0 mass),	
but is not in solution or other phases.
WARNING: Element Na is contained in Labile_Salt (which has 0.0 mass),	
but is not in solution or other phases.
WARNING: Element S is contained in Labile_Salt (which has 0.0 mass),	
but is not in solution or other phases.
WARNING: Element K is contained in Langbeinite (which has 0.0 mass),	
but is not in solution or other phases.
WARNING: Element S is contained in Langbeinite (which has 0.0 mass),	
but is not in solution or other phases.
WARNING: Element K is contained in Leonite (which has 0.0 mass),	
but is not in solution or other phases.
WARNING: Element S is contained in Leonite (which has 0.0 mass),	
but is not in solution or other phases.
WARNING: Element S is contained in Meridianiite (which has 0.0 mass),	
but is not in solution or other phases.
WARNING: Element Na is contained in Mirabilite (which has 0.0 mass),	
but is not in solution or other phases.
WARNING: Element S is contained in Mirabilite (which has 0.0 mass),	
but is not in solution or other phases.
WARNING: Element Na is contained in Na2SO4:7H2O (which has 0.0 mass),	
but is not in solution or other phases.
WARNING: Element S is contained in Na2SO4:7H2O (which has 0.0 mass),	
but is not in solution or other phases.
WARNING: Element S is contained in Pentahydrite (which has 0.0 mass),	
but is not in solution or other phases.
WARNING: Element K is contained in Picromerite (which has 0.0 mass),	
but is not in solution or other phases.
WARNING: Element S is contained in Picromerite (which has 0.0 mass),	
but is not in solution or other phases.
WARNING: Element Ca is contained in Polyhalite (which has 0.0 mass),	
but is not in solution or other phases.
WARNING: Element K is contained in Polyhalite (which has 0.0 mass),	
but is not in solution or other phases.
WARNING: Element S is contained in Polyhalite (which has 0.0 mass),	
but is not in solution or other phases.
WARNING: Element S is contained in Starkeyite (which has 0.0 mass),	
but is not in solution or other phases.
WARNING: Element K is contained in Sylvite (which has 0.0 mass),	
but is not in solution or other phases.
WARNING: Element Ca is contained in Syngenite (which has 0.0 mass),	
but is not in solution or other phases.
WARNING: Element K is contained in Syngenite (which has 0.0 mass),	
but is not in solution or other phases.
WARNING: Element S is contained in Syngenite (which has 0.0 mass),	
but is not in solution or other phases.
WARNING: Element Ca is contained in Tachyhydrite (which has 0.0 mass),	
but is not in solution or other phases.
WARNING: Element Na is contained in Thenardite (which has 0.0 mass),	
but is not in solution or other phases.
WARNING: Element S is contained in Thenardite (which has 0.0 mass),	
but is not in solution or other phases.
Using solution 1.	
Using pure phase assemblage 1.	
Using temperature 1.	

-------------------------------Phase assemblage--------------------------------

                                                      Moles in assemblage
Phase               SI  log IAP  log K(T, P)   Initial       Final       Delta

Anhydrite            Element not present.    0.000e+00           0   0.000e+00
Antarcticite         Element not present.    0.000e+00           0   0.000e+00
Arcanite             Element not present.    0.000e+00           0   0.000e+00
Bassanite            Element not present.    0.000e+00           0   0.000e+00
Bischofite      -10.51    -5.74      4.78    0.000e+00           0   0.000e+00
Bloedite             Element not present.    0.000e+00           0   0.000e+00
Carnallite           Element not present.    0.000e+00           0   0.000e+00
Epsomite             Element not present.    0.000e+00           0   0.000e+00
Glaserite            Element not present.    0.000e+00           0   0.000e+00
Glauberite           Element not present.    0.000e+00           0   0.000e+00
Gypsum               Element not present.    0.000e+00           0   0.000e+00
Halite               Element not present.    0.000e+00           0   0.000e+00
Hexahydrite          Element not present.    0.000e+00           0   0.000e+00
Hydrohalite          Element not present.    0.000e+00           0   0.000e+00
Ice(s)           -0.00    -0.00      0.00    0.000e+00           0   0.000e+00
Kainite              Element not present.    0.000e+00           0   0.000e+00
Kieserite            Element not present.    0.000e+00           0   0.000e+00
Labile_Salt          Element not present.    0.000e+00           0   0.000e+00
Langbeinite          Element not present.    0.000e+00           0   0.000e+00
Leonite              Element not present.    0.000e+00           0   0.000e+00
Meridianiite         Element not present.    0.000e+00           0   0.000e+00
MgCl2:12H2O      -8.44    -5.74      2.70    0.000e+00           0   0.000e+00
MgCl2:8H2O       -9.66    -5.74      3.92    0.000e+00           0   0.000e+00
Mirabilite           Element not present.    0.000e+00           0   0.000e+00
Na2SO4:7H2O          Element not present.    0.000e+00           0   0.000e+00
Pentahydrite         Element not present.    0.000e+00           0   0.000e+00
Picromerite          Element not present.    0.000e+00           0   0.000e+00
Polyhalite           Element not present.    0.000e+00           0   0.000e+00
Starkeyite           Element not present.    0.000e+00           0   0.000e+00
Sylvite              Element not present.    0.000e+00           0   0.000e+00
Syngenite            Element not present.    0.000e+00           0   0.000e+00
Tachyhydrite         Element not present.    0.000e+00           0   0.000e+00
Thenardite           Element not present.    0.000e+00           0   0.000e+00

-----------------------------Solution composition------------------------------

	Elements           Molality       Moles

	Cl                2.100e-02   2.100e-02
	Mg                1.050e-02   1.050e-02

----------------------------Description of solution----------------------------

                                       pH  =   7.000      Charge balance
                                       pe  =   4.000      Adjusted to redox equilibrium
      Specific Conductance (µS/cm,   0°C)  = 1153
                          Density (g/cm³)  =   1.00071
                               Volume (L)  =   1.00029
                        Activity of water  =   0.999
                 Ionic strength (mol/kgw)  =   3.150e-02
                       Mass of water (kg)  =   1.000e+00
                 Total alkalinity (eq/kg)  =  -1.765e-09
                         Temperature (°C)  =   0.00
                  Electrical balance (eq)  =   1.754e-09
 Percent error, 100*(Cat-|An|)/(Cat+|An|)  =   0.00
                               Iterations  =   3
                         Gamma iterations  =   2
                      Osmotic coefficient  =   0.91036
                         Density of water  =   0.99984
                                  Total H  = 1.110186e+02
                                  Total O  = 5.550930e+01

----------------------------Distribution of species----------------------------

                                                    Unscaled  Unscaled
                                Unscaled       Log       Log       Log    mole V
   Species          Molality    Activity  Molality  Activity     Gamma    cm³/mol

   H+              1.211e-07   1.000e-07    -6.917    -7.000    -0.083      0.00
   OH-             1.193e-07   9.991e-08    -6.923    -7.000    -0.077     -6.03
   H2O             5.551e+01   9.995e-01     1.744    -0.000     0.000     18.02
Cl            2.100e-02
   Cl-             2.100e-02   1.819e-02    -1.678    -1.740    -0.062     16.55
Mg            1.050e-02
   Mg+2            1.050e-02   5.527e-03    -1.979    -2.257    -0.279    -20.46

------------------------------Saturation indices-------------------------------

  Phase               SI** log IAP   log K(273 K,   1 atm)

  Bischofite      -10.51     -5.74    4.78  MgCl2:6H2O
  Ice(s)           -0.00     -0.00    0.00  H2O
  MgCl2:12H2O      -8.44     -5.74    2.70  MgCl2:12H2O
  MgCl2:8H2O       -9.66     -5.74    3.92  MgCl2:8H2O

**For a gas, SI = log10(fugacity). Fugacity = pressure * phi / 1 atm.
  For ideal gases, phi = 1.

Reaction step 2.

WARNING: Element Ca is contained in Anhydrite (which has 0.0 mass),	
but is not in solution or other phases.
WARNING: Element S is contained in Anhydrite (which has 0.0 mass),	
but is not in solution or other phases.
WARNING: Element Ca is contained in Antarcticite (which has 0.0 mass),	
but is not in solution or other phases.
WARNING: Element K is contained in Arcanite (which has 0.0 mass),	
but is not in solution or other phases.
WARNING: Element S is contained in Arcanite (which has 0.0 mass),	
but is not in solution or other phases.
WARNING: Element Ca is contained in Bassanite (which has 0.0 mass),	
but is not in solution or other phases.
WARNING: Element S is contained in Bassanite (which has 0.0 mass),	
but is not in solution or other phases.
WARNING: Element Na is contained in Bloedite (which has 0.0 mass),	
but is not in solution or other phases.
WARNING: Element S is contained in Bloedite (which has 0.0 mass),	
but is not in solution or other phases.
WARNING: Element K is contained in Carnallite (which has 0.0 mass),	
but is not in solution or other phases.
WARNING: Element S is contained in Epsomite (which has 0.0 mass),	
but is not in solution or other phases.
WARNING: Element K is contained in Glaserite (which has 0.0 mass),	
but is not in solution or other phases.
WARNING: Element Na is contained in Glaserite (which has 0.0 mass),	
but is not in solution or other phases.
WARNING: Element S is contained in Glaserite (which has 0.0 mass),	
but is not in solution or other phases.
WARNING: Element Ca is contained in Glauberite (which has 0.0 mass),	
but is not in solution or other phases.
WARNING: Element Na is contained in Glauberite (which has 0.0 mass),	
but is not in solution or other phases.
WARNING: Element S is contained in Glauberite (which has 0.0 mass),	
but is not in solution or other phases.
WARNING: Element Ca is contained in Gypsum (which has 0.0 mass),	
but is not in solution or other phases.
WARNING: Element S is contained in Gypsum (which has 0.0 mass),	
but is not in solution or other phases.
WARNING: Element Na is contained in Halite (which has 0.0 mass),	
but is not in solution or other phases.
WARNING: Element S is contained in Hexahydrite (which has 0.0 mass),	
but is not in solution or other phases.
WARNING: Element Na is contained in Hydrohalite (which has 0.0 mass),	
but is not in solution or other phases.
WARNING: Element K is contained in Kainite (which has 0.0 mass),	
but is not in solution or other phases.
WARNING: Element S is contained in Kainite (which has 0.0 mass),	
but is not in solution or other phases.
WARNING: Element S is contained in Kieserite (which has 0.0 mass),	
but is not in solution or other phases.
WARNING: Element Ca is contained in Labile_Salt (which has 0.0 mass),	
but is not in solution or other phases.
WARNING: Element Na is contained in Labile_Salt (which has 0.0 mass),	
but is not in solution or other phases.
WARNING: Element S is contained in Labile_Salt (which has 0.0 mass),	
but is not in solution or other phases.
WARNING: Element K is contained in Langbeinite (which has 0.0 mass),	
but is not in solution or other phases.
WARNING: Element S is contained in Langbeinite (which has 0.0 mass),	
but is not in solution or other phases.
WARNING: Element K is contained in Leonite (which has 0.0 mass),	
but is not in solution or other phases.
WARNING: Element S is contained in Leonite (which has 0.0 mass),	
but is not in solution or other phases.
WARNING: Element S is contained in Meridianiite (which has 0.0 mass),	
but is not in solution or other phases.
WARNING: Element Na is contained in Mirabilite (which has 0.0 mass),	
but is not in solution or other phases.
WARNING: Element S is contained in Mirabilite (which has 0.0 mass),	
but is not in solution or other phases.
WARNING: Element Na is contained in Na2SO4:7H2O (which has 0.0 mass),	
but is not in solution or other phases.
WARNING: Element S is contained in Na2SO4:7H2O (which has 0.0 mass),	
but is not in solution or other phases.
WARNING: Element S is contained in Pentahydrite (which has 0.0 mass),	
but is not in solution or other phases.
WARNING: Element K is contained in Picromerite (which has 0.0 mass),	
but is not in solution or other phases.
WARNING: Element S is contained in Picromerite (which has 0.0 mass),	
but is not in solution or other phases.
WARNING: Element Ca is contained in Polyhalite (which has 0.0 mass),	
but is not in solution or other phases.
WARNING: Element K is contained in Polyhalite (which has 0.0 mass),	
but is not in solution or other phases.
WARNING: Element S is contained in Polyhalite (which has 0.0 mass),	
but is not in solution or other phases.
WARNING: Element S is contained in Starkeyite (which has 0.0 mass),	
but is not in solution or other phases.
WARNING: Element K is contained in Sylvite (which has 0.0 mass),	
but is not in solution or other phases.
WARNING: Element Ca is contained in Syngenite (which has 0.0 mass),	
but is not in solution or other phases.
WARNING: Element K is contained in Syngenite (which has 0.0 mass),	
but is not in solution or other phases.
WARNING: Element S is contained in Syngenite (which has 0.0 mass),	
but is not in solution or other phases.
WARNING: Element Ca is contained in Tachyhydrite (which has 0.0 mass),	
but is not in solution or other phases.
Using solution 1.	
Using pure phase assemblage 1.	
Using temperature 1.	

-------------------------------Phase assemblage--------------------------------

                                                      Moles in assemblage
Phase               SI  log IAP  log K(T, P)   Initial       Final       Delta

Anhydrite            Element not present.    0.000e+00           0   0.000e+00
Antarcticite         Element not present.    0.000e+00           0   0.000e+00
Arcanite             Element not present.    0.000e+00           0   0.000e+00
Bassanite            Element not present.    0.000e+00           0   0.000e+00
Bischofite       -9.78    -5.00      4.78    0.000e+00           0   0.000e+00
Bloedite             Element not present.    0.000e+00           0   0.000e+00
Carnallite           Element not present.    0.000e+00           0   0.000e+00
Epsomite             Element not present.    0.000e+00           0   0.000e+00
Glaserite            Element not present.    0.000e+00           0   0.000e+00
Glauberite           Element not present.    0.000e+00           0   0.000e+00
Gypsum               Element not present.    0.000e+00           0   0.000e+00
Halite               Element not present.    0.000e+00           0   0.000e+00
Hexahydrite          Element not present.    0.000e+00           0   0.000e+00
Hydrohalite          Element not present.    0.000e+00           0   0.000e+00
Ice(s)            0.00    -0.00     -0.00    0.000e+00   2.648e+01   2.648e+01
Kainite              Element not present.    0.000e+00           0   0.000e+00
Kieserite            Element not present.    0.000e+00           0   0.000e+00
Labile_Salt          Element not present.    0.000e+00           0   0.000e+00
Langbeinite          Element not present.    0.000e+00           0   0.000e+00
Leonite              Element not present.    0.000e+00           0   0.000e+00
Meridianiite         Element not present.    0.000e+00           0   0.000e+00
MgCl2:12H2O      -7.70    -5.00      2.70    0.000e+00           0   0.000e+00
MgCl2:8H2O       -8.92    -5.00      3.92    0.000e+00           0   0.000e+00
Mirabilite           Element not present.    0.000e+00           0   0.000e+00
Na2SO4:7H2O          Element not present.    0.000e+00           0   0.000e+00
Pentahydrite         Element not present.    0.000e+00           0   0.000e+00
Picromerite          Element not present.    0.000e+00           0   0.000e+00
Polyhalite           Element not present.    0.000e+00           0   0.000e+00
Starkeyite           Element not present.    0.000e+00           0   0.000e+00
Sylvite              Element not present.    0.000e+00           0   0.000e+00
Syngenite            Element not present.    0.000e+00           0   0.000e+00
Tachyhydrite         Element not present.    0.000e+00           0   0.000e+00
Thenardite           Element not present.    0.000e+00           0   0.000e+00

-----------------------------Solution composition------------------------------

	Elements           Molality       Moles

	Cl                4.016e-02   2.100e-02
	Mg                2.008e-02   1.050e-02

----------------------------Description of solution----------------------------

                                       pH  =   6.999      Charge balance
                                       pe  =   4.000      Adjusted to redox equilibrium
      Specific Conductance (µS/cm,  -0°C)  = 2101
                          Density (g/cm³)  =   1.00149
                               Volume (L)  =   0.52314
                        Activity of water  =   0.999
                 Ionic strength (mol/kgw)  =   6.024e-02
                       Mass of water (kg)  =   5.229e-01
                 Total alkalinity (eq/kg)  =  -3.375e-09
                         Temperature (°C)  =  -0.10
                  Electrical balance (eq)  =   1.765e-09
 Percent error, 100*(Cat-|An|)/(Cat+|An|)  =   0.00
                               Iterations  =   7 (1411 overall)
                         Gamma iterations  =   1
                      Osmotic coefficient  =   0.89276
                         Density of water  =   0.99983
                                  Total H  = 5.805307e+01
                                  Total O  = 2.902653e+01

----------------------------Distribution of species----------------------------

                                                    Unscaled  Unscaled
                                Unscaled       Log       Log       Log    mole V
   Species          Molality    Activity  Molality  Activity     Gamma    cm³/mol

   H+              1.295e-07   1.003e-07    -6.888    -6.999    -0.111      0.00
   OH-             1.261e-07   9.962e-08    -6.899    -7.002    -0.102     -5.96
   H2O             5.551e+01   9.990e-01     1.744    -0.000     0.000     18.02
Cl            4.016e-02
   Cl-             4.016e-02   3.371e-02    -1.396    -1.472    -0.076     16.59
Mg            2.008e-02
   Mg+2            2.008e-02   8.822e-03    -1.697    -2.054    -0.357    -20.34

------------------------------Saturation indices-------------------------------

  Phase               SI** log IAP   log K(273 K,   1 atm)

  Bischofite       -9.78     -5.00    4.78  MgCl2:6H2O
  Ice(s)            0.00     -0.00   -0.00  H2O
  MgCl2:12H2O      -7.70     -5.00    2.70  MgCl2:12H2O
  MgCl2:8H2O       -8.92     -5.00    3.92  MgCl2:8H2O

**For a gas, SI = log10(fugacity). Fugacity = pressure * phi / 1 atm.
  For ideal gases, phi = 1.

Reaction step 3.

Using solution 1.	
Using pure phase assemblage 1.	
Using temperature 1.	

-------------------------------Phase assemblage--------------------------------

                                                      Moles in assemblage
Phase               SI  log IAP  log K(T, P)   Initial       Final       Delta

Anhydrite            Element not present.    0.000e+00           0   0.000e+00
Antarcticite         Element not present.    0.000e+00           0   0.000e+00
Arcanite             Element not present.    0.000e+00           0   0.000e+00
Bassanite            Element not present.    0.000e+00           0   0.000e+00
Bischofite       -8.98    -4.21      4.78    0.000e+00           0   0.000e+00
Bloedite             Element not present.    0.000e+00           0   0.000e+00
Carnallite           Element not present.    0.000e+00           0   0.000e+00
Epsomite             Element not present.    0.000e+00           0   0.000e+00
Glaserite            Element not present.    0.000e+00           0   0.000e+00
Glauberite           Element not present.    0.000e+00           0   0.000e+00
Gypsum               Element not present.    0.000e+00           0   0.000e+00
Halite               Element not present.    0.000e+00           0   0.000e+00
Hexahydrite          Element not present.    0.000e+00           0   0.000e+00
Hydrohalite          Element not present.    0.000e+00           0   0.000e+00
Ice(s)            0.00    -0.00     -0.00    0.000e+00   4.126e+01   4.126e+01
Kainite              Element not present.    0.000e+00           0   0.000e+00
Kieserite            Element not present.    0.000e+00           0   0.000e+00
Labile_Salt          Element not present.    0.000e+00           0   0.000e+00
Langbeinite          Element not present.    0.000e+00           0   0.000e+00
Leonite              Element not present.    0.000e+00           0   0.000e+00
Meridianiite         Element not present.    0.000e+00           0   0.000e+00
MgCl2:12H2O      -6.90    -4.21      2.69    0.000e+00           0   0.000e+00
MgCl2:8H2O       -8.12    -4.21      3.91    0.000e+00           0   0.000e+00
Mirabilite           Element not present.    0.000e+00           0   0.000e+00
Na2SO4:7H2O          Element not present.    0.000e+00           0   0.000e+00
Pentahydrite         Element not present.    0.000e+00           0   0.000e+00
Picromerite          Element not present.    0.000e+00           0   0.000e+00
Polyhalite           Element not present.    0.000e+00           0   0.000e+00
Starkeyite           Element not present.    0.000e+00           0   0.000e+00
Sylvite              Element not present.    0.000e+00           0   0.000e+00
Syngenite            Element not present.    0.000e+00           0   0.000e+00
Tachyhydrite         Element not present.    0.000e+00           0   0.000e+00
Thenardite           Element not present.    0.000e+00           0   0.000e+00

-----------------------------Solution composition------------------------------

	Elements           Molality       Moles

	Cl                8.181e-02   2.100e-02
	Mg                4.090e-02   1.050e-02

----------------------------Description of solution----------------------------

                                       pH  =   6.996      Charge balance
                                       pe  =   4.000      Adjusted to redox equilibrium
      Specific Conductance (µS/cm,  -0°C)  = 4004
                          Density (g/cm³)  =   1.00318
                               Volume (L)  =   0.25688
                        Activity of water  =   0.998
                 Ionic strength (mol/kgw)  =   1.227e-01
                       Mass of water (kg)  =   2.567e-01
                 Total alkalinity (eq/kg)  =  -6.874e-09
                         Temperature (°C)  =  -0.20
                  Electrical balance (eq)  =   1.765e-09
 Percent error, 100*(Cat-|An|)/(Cat+|An|)  =   0.00
                               Iterations  =  11 (1415 overall)
                         Gamma iterations  =   1
                      Osmotic coefficient  =   0.87660
                         Density of water  =   0.99983
                                  Total H  = 2.849866e+01
                                  Total O  = 1.424933e+01

----------------------------Distribution of species----------------------------

                                                    Unscaled  Unscaled
                                Unscaled       Log       Log       Log    mole V
   Species          Molality    Activity  Molality  Activity     Gamma    cm³/mol

   H+              1.430e-07   1.009e-07    -6.845    -6.996    -0.152      0.00
   OH-             1.362e-07   9.893e-08    -6.866    -7.005    -0.139     -5.83
   H2O             5.551e+01   9.981e-01     1.744    -0.001     0.000     18.02
Cl            8.181e-02
   Cl-             8.181e-02   6.649e-02    -1.087    -1.177    -0.090     16.67
Mg            4.090e-02
   Mg+2            4.090e-02   1.426e-02    -1.388    -1.846    -0.458    -20.18

------------------------------Saturation indices-------------------------------

  Phase               SI** log IAP   log K(272 K,   1 atm)

  Bischofite       -8.98     -4.21    4.78  MgCl2:6H2O
  Ice(s)            0.00     -0.00   -0.00  H2O
  MgCl2:12H2O      -6.90     -4.21    2.69  MgCl2:12H2O
  MgCl2:8H2O       -8.12     -4.21    3.91  MgCl2:8H2O

**For a gas, SI = log10(fugacity). Fugacity = pressure * phi / 1 atm.
  For ideal gases, phi = 1.

Reaction step 4.

Using solution 1.	
Using pure phase assemblage 1.	
Using temperature 1.	

-------------------------------Phase assemblage--------------------------------

                                                      Moles in assemblage
Phase               SI  log IAP  log K(T, P)   Initial       Final       Delta

Anhydrite            Element not present.    0.000e+00           0   0.000e+00
Antarcticite         Element not present.    0.000e+00           0   0.000e+00
Arcanite             Element not present.    0.000e+00           0   0.000e+00
Bassanite            Element not present.    0.000e+00           0   0.000e+00
Bischofite       -8.52    -3.75      4.78    0.000e+00           0   0.000e+00
Bloedite             Element not present.    0.000e+00           0   0.000e+00
Carnallite           Element not present.    0.000e+00           0   0.000e+00
Epsomite             Element not present.    0.000e+00           0   0.000e+00
Glaserite            Element not present.    0.000e+00           0   0.000e+00
Glauberite           Element not present.    0.000e+00           0   0.000e+00
Gypsum               Element not present.    0.000e+00           0   0.000e+00
Halite               Element not present.    0.000e+00           0   0.000e+00
Hexahydrite          Element not present.    0.000e+00           0   0.000e+00
Hydrohalite          Element not present.    0.000e+00           0   0.000e+00
Ice(s)            0.00    -0.00     -0.00    0.000e+00   4.607e+01   4.607e+01
Kainite              Element not present.    0.000e+00           0   0.000e+00
Kieserite            Element not present.    0.000e+00           0   0.000e+00
Labile_Salt          Element not present.    0.000e+00           0   0.000e+00
Langbeinite          Element not present.    0.000e+00           0   0.000e+00
Leonite              Element not present.    0.000e+00           0   0.000e+00
Meridianiite         Element not present.    0.000e+00           0   0.000e+00
MgCl2:12H2O      -6.45    -3.75      2.69    0.000e+00           0   0.000e+00
MgCl2:8H2O       -7.66    -3.75      3.91    0.000e+00           0   0.000e+00
Mirabilite           Element not present.    0.000e+00           0   0.000e+00
Na2SO4:7H2O          Element not present.    0.000e+00           0   0.000e+00
Pentahydrite         Element not present.    0.000e+00           0   0.000e+00
Picromerite          Element not present.    0.000e+00           0   0.000e+00
Polyhalite           Element not present.    0.000e+00           0   0.000e+00
Starkeyite           Element not present.    0.000e+00           0   0.000e+00
Sylvite              Element not present.    0.000e+00           0   0.000e+00
Syngenite            Element not present.    0.000e+00           0   0.000e+00
Tachyhydrite         Element not present.    0.000e+00           0   0.000e+00
Thenardite           Element not present.    0.000e+00           0   0.000e+00

-----------------------------Solution composition------------------------------

	Elements           Molality       Moles

	Cl                1.235e-01   2.100e-02
	Mg                6.177e-02   1.050e-02

----------------------------Description of solution----------------------------

                                       pH  =   6.994      Charge balance
                                       pe  =   4.000      Adjusted to redox equilibrium
      Specific Conductance (µS/cm,  -0°C)  = 5763
                          Density (g/cm³)  =   1.00487
                               Volume (L)  =   0.17015
                        Activity of water  =   0.997
                 Ionic strength (mol/kgw)  =   1.853e-01
                       Mass of water (kg)  =   1.700e-01
                 Total alkalinity (eq/kg)  =  -1.038e-08
                         Temperature (°C)  =  -0.30
                  Electrical balance (eq)  =   1.765e-09
 Percent error, 100*(Cat-|An|)/(Cat+|An|)  =   0.00
                               Iterations  =  13 (1417 overall)
                         Gamma iterations  =   1
                      Osmotic coefficient  =   0.87073
                         Density of water  =   0.99982
                                  Total H  = 1.887035e+01
                                  Total O  = 9.435173e+00

----------------------------Distribution of species----------------------------

                                                    Unscaled  Unscaled
                                Unscaled       Log       Log       Log    mole V
   Species          Molality    Activity  Molality  Activity     Gamma    cm³/mol

   H+              1.538e-07   1.015e-07    -6.813    -6.994    -0.181      0.00
   OH-             1.434e-07   9.824e-08    -6.843    -7.008    -0.164     -5.71
   H2O             5.551e+01   9.971e-01     1.744    -0.001     0.000     18.02
Cl            1.235e-01
   Cl-             1.235e-01   9.902e-02    -0.908    -1.004    -0.096     16.72
Mg            6.177e-02
   Mg+2            6.177e-02   1.861e-02    -1.209    -1.730    -0.521    -20.07

------------------------------Saturation indices-------------------------------

  Phase               SI** log IAP   log K(272 K,   1 atm)

  Bischofite       -8.52     -3.75    4.78  MgCl2:6H2O
  Ice(s)            0.00     -0.00   -0.00  H2O
  MgCl2:12H2O      -6.45     -3.75    2.69  MgCl2:12H2O
  MgCl2:8H2O       -7.66     -3.75    3.91  MgCl2:8H2O

**For a gas, SI = log10(fugacity). Fugacity = pressure * phi / 1 atm.
  For ideal gases, phi = 1.

Reaction step 5.

Using solution 1.	
Using pure phase assemblage 1.	
Using temperature 1.	

-------------------------------Phase assemblage--------------------------------

                                                      Moles in assemblage
Phase               SI  log IAP  log K(T, P)   Initial       Final       Delta

Anhydrite            Element not present.    0.000e+00           0   0.000e+00
Antarcticite         Element not present.    0.000e+00           0   0.000e+00
Arcanite             Element not present.    0.000e+00           0   0.000e+00
Bassanite            Element not present.    0.000e+00           0   0.000e+00
Bischofite       -8.20    -3.42      4.78    0.000e+00           0   0.000e+00
Bloedite             Element not present.    0.000e+00           0   0.000e+00
Carnallite           Element not present.    0.000e+00           0   0.000e+00
Epsomite             Element not present.    0.000e+00           0   0.000e+00
Glaserite            Element not present.    0.000e+00           0   0.000e+00
Glauberite           Element not present.    0.000e+00           0   0.000e+00
Gypsum               Element not present.    0.000e+00           0   0.000e+00
Halite               Element not present.    0.000e+00           0   0.000e+00
Hexahydrite          Element not present.    0.000e+00           0   0.000e+00
Hydrohalite          Element not present.    0.000e+00           0   0.000e+00
Ice(s)            0.00    -0.00     -0.00    0.000e+00   4.845e+01   4.845e+01
Kainite              Element not present.    0.000e+00           0   0.000e+00
Kieserite            Element not present.    0.000e+00           0   0.000e+00
Labile_Salt          Element not present.    0.000e+00           0   0.000e+00
Langbeinite          Element not present.    0.000e+00           0   0.000e+00
Leonite              Element not present.    0.000e+00           0   0.000e+00
Meridianiite         Element not present.    0.000e+00           0   0.000e+00
MgCl2:12H2O      -6.12    -3.43      2.69    0.000e+00           0   0.000e+00
MgCl2:8H2O       -7.34    -3.43      3.91    0.000e+00           0   0.000e+00
Mirabilite           Element not present.    0.000e+00           0   0.000e+00
Na2SO4:7H2O          Element not present.    0.000e+00           0   0.000e+00
Pentahydrite         Element not present.    0.000e+00           0   0.000e+00
Picromerite          Element not present.    0.000e+00           0   0.000e+00
Polyhalite           Element not present.    0.000e+00           0   0.000e+00
Starkeyite           Element not present.    0.000e+00           0   0.000e+00
Sylvite              Element not present.    0.000e+00           0   0.000e+00
Syngenite            Element not present.    0.000e+00           0   0.000e+00
Tachyhydrite         Element not present.    0.000e+00           0   0.000e+00
Thenardite           Element not present.    0.000e+00           0   0.000e+00

-----------------------------Solution composition------------------------------

	Elements           Molality       Moles

	Cl                1.651e-01   2.100e-02
	Mg                8.254e-02   1.050e-02

----------------------------Description of solution----------------------------

                                       pH  =   6.991      Charge balance
                                       pe  =   4.000      Adjusted to redox equilibrium
      Specific Conductance (µS/cm,  -0°C)  = 7403
                          Density (g/cm³)  =   1.00654
                               Volume (L)  =   0.12738
                        Activity of water  =   0.996
                 Ionic strength (mol/kgw)  =   2.476e-01
                       Mass of water (kg)  =   1.272e-01
                 Total alkalinity (eq/kg)  =  -1.387e-08
                         Temperature (°C)  =  -0.40
                  Electrical balance (eq)  =   1.765e-09
 Percent error, 100*(Cat-|An|)/(Cat+|An|)  =   0.00
                               Iterations  =  15 (1419 overall)
                         Gamma iterations  =   1
                      Osmotic coefficient  =   0.86897
                         Density of water  =   0.99981
                                  Total H  = 1.412314e+01
                                  Total O  = 7.061571e+00

----------------------------Distribution of species----------------------------

                                                    Unscaled  Unscaled
                                Unscaled       Log       Log       Log    mole V
   Species          Molality    Activity  Molality  Activity     Gamma    cm³/mol

   H+              1.632e-07   1.021e-07    -6.787    -6.991    -0.204      0.00
   OH-             1.493e-07   9.759e-08    -6.826    -7.011    -0.185     -5.61
   H2O             5.551e+01   9.961e-01     1.744    -0.002     0.000     18.02
Cl            1.651e-01
   Cl-             1.651e-01   1.315e-01    -0.782    -0.881    -0.099     16.77
Mg            8.254e-02
   Mg+2            8.254e-02   2.236e-02    -1.083    -1.650    -0.567    -19.99

------------------------------Saturation indices-------------------------------

  Phase               SI** log IAP   log K(272 K,   1 atm)

  Bischofite       -8.20     -3.42    4.78  MgCl2:6H2O
  Ice(s)            0.00     -0.00   -0.00  H2O
  MgCl2:12H2O      -6.12     -3.43    2.69  MgCl2:12H2O
  MgCl2:8H2O       -7.34     -3.43    3.91  MgCl2:8H2O

**For a gas, SI = log10(fugacity). Fugacity = pressure * phi / 1 atm.
  For ideal gases, phi = 1.

Reaction step 6.

Using solution 1.	
Using pure phase assemblage 1.	
Using temperature 1.	

-------------------------------Phase assemblage--------------------------------

                                                      Moles in assemblage
Phase               SI  log IAP  log K(T, P)   Initial       Final       Delta

Anhydrite            Element not present.    0.000e+00           0   0.000e+00
Antarcticite         Element not present.    0.000e+00           0   0.000e+00
Arcanite             Element not present.    0.000e+00           0   0.000e+00
Bassanite            Element not present.    0.000e+00           0   0.000e+00
Bischofite       -7.95    -3.17      4.78    0.000e+00           0   0.000e+00
Bloedite             Element not present.    0.000e+00           0   0.000e+00
Carnallite           Element not present.    0.000e+00           0   0.000e+00
Epsomite             Element not present.    0.000e+00           0   0.000e+00
Glaserite            Element not present.    0.000e+00           0   0.000e+00
Glauberite           Element not present.    0.000e+00           0   0.000e+00
Gypsum               Element not present.    0.000e+00           0   0.000e+00
Halite               Element not present.    0.000e+00           0   0.000e+00
Hexahydrite          Element not present.    0.000e+00           0   0.000e+00
Hydrohalite          Element not present.    0.000e+00           0   0.000e+00
Ice(s)            0.00    -0.00     -0.00    0.000e+00   4.986e+01   4.986e+01
Kainite              Element not present.    0.000e+00           0   0.000e+00
Kieserite            Element not present.    0.000e+00           0   0.000e+00
Labile_Salt          Element not present.    0.000e+00           0   0.000e+00
Langbeinite          Element not present.    0.000e+00           0   0.000e+00
Leonite              Element not present.    0.000e+00           0   0.000e+00
Meridianiite         Element not present.    0.000e+00           0   0.000e+00
MgCl2:12H2O      -5.87    -3.19      2.69    0.000e+00           0   0.000e+00
MgCl2:8H2O       -7.09    -3.18      3.91    0.000e+00           0   0.000e+00
Mirabilite           Element not present.    0.000e+00           0   0.000e+00
Na2SO4:7H2O          Element not present.    0.000e+00           0   0.000e+00
Pentahydrite         Element not present.    0.000e+00           0   0.000e+00
Picromerite          Element not present.    0.000e+00           0   0.000e+00
Polyhalite           Element not present.    0.000e+00           0   0.000e+00
Starkeyite           Element not present.    0.000e+00           0   0.000e+00
Sylvite              Element not present.    0.000e+00           0   0.000e+00
Syngenite            Element not present.    0.000e+00           0   0.000e+00
Tachyhydrite         Element not present.    0.000e+00           0   0.000e+00
Thenardite           Element not present.    0.000e+00           0   0.000e+00

-----------------------------Solution composition------------------------------

	Elements           Molality       Moles

	Cl                2.063e-01   2.100e-02
	Mg                1.031e-01   1.050e-02

----------------------------Description of solution----------------------------

                                       pH  =   6.989      Charge balance
                                       pe  =   4.000      Adjusted to redox equilibrium
      Specific Conductance (µS/cm,  -1°C)  = 8940
                          Density (g/cm³)  =   1.00820
                               Volume (L)  =   0.10197
                        Activity of water  =   0.995
                 Ionic strength (mol/kgw)  =   3.094e-01
                       Mass of water (kg)  =   1.018e-01
                 Total alkalinity (eq/kg)  =  -1.733e-08
                         Temperature (°C)  =  -0.50
                  Electrical balance (eq)  =   1.765e-09
 Percent error, 100*(Cat-|An|)/(Cat+|An|)  =   0.00
                               Iterations  =  16 (1420 overall)
                         Gamma iterations  =   1
                      Osmotic coefficient  =   0.86931
                         Density of water  =   0.99980
                                  Total H  = 1.130222e+01
                                  Total O  = 5.651112e+00

----------------------------Distribution of species----------------------------

                                                    Unscaled  Unscaled
                                Unscaled       Log       Log       Log    mole V
   Species          Molality    Activity  Molality  Activity     Gamma    cm³/mol

   H+              1.716e-07   1.026e-07    -6.765    -6.989    -0.223      0.00
   OH-             1.543e-07   9.695e-08    -6.812    -7.013    -0.202     -5.51
   H2O             5.551e+01   9.952e-01     1.744    -0.002     0.000     18.02
Cl            2.063e-01
   Cl-             2.063e-01   1.640e-01    -0.686    -0.785    -0.100     16.81
Mg            1.031e-01
   Mg+2            1.031e-01   2.573e-02    -0.987    -1.590    -0.603    -19.92

------------------------------Saturation indices-------------------------------

  Phase               SI** log IAP   log K(272 K,   1 atm)

  Bischofite       -7.95     -3.17    4.78  MgCl2:6H2O
  Ice(s)            0.00     -0.00   -0.00  H2O
  MgCl2:12H2O      -5.87     -3.19    2.69  MgCl2:12H2O
  MgCl2:8H2O       -7.09     -3.18    3.91  MgCl2:8H2O

**For a gas, SI = log10(fugacity). Fugacity = pressure * phi / 1 atm.
  For ideal gases, phi = 1.

Reaction step 7.

Using solution 1.	
Using pure phase assemblage 1.	
Using temperature 1.	

-------------------------------Phase assemblage--------------------------------

                                                      Moles in assemblage
Phase               SI  log IAP  log K(T, P)   Initial       Final       Delta

Anhydrite            Element not present.    0.000e+00           0   0.000e+00
Antarcticite         Element not present.    0.000e+00           0   0.000e+00
Arcanite             Element not present.    0.000e+00           0   0.000e+00
Bassanite            Element not present.    0.000e+00           0   0.000e+00
Bischofite       -7.75    -2.97      4.78    0.000e+00           0   0.000e+00
Bloedite             Element not present.    0.000e+00           0   0.000e+00
Carnallite           Element not present.    0.000e+00           0   0.000e+00
Epsomite             Element not present.    0.000e+00           0   0.000e+00
Glaserite            Element not present.    0.000e+00           0   0.000e+00
Glauberite           Element not present.    0.000e+00           0   0.000e+00
Gypsum               Element not present.    0.000e+00           0   0.000e+00
Halite               Element not present.    0.000e+00           0   0.000e+00
Hexahydrite          Element not present.    0.000e+00           0   0.000e+00
Hydrohalite          Element not present.    0.000e+00           0   0.000e+00
Ice(s)            0.00    -0.00     -0.00    0.000e+00   5.079e+01   5.079e+01
Kainite              Element not present.    0.000e+00           0   0.000e+00
Kieserite            Element not present.    0.000e+00           0   0.000e+00
Labile_Salt          Element not present.    0.000e+00           0   0.000e+00
Langbeinite          Element not present.    0.000e+00           0   0.000e+00
Leonite              Element not present.    0.000e+00           0   0.000e+00
Meridianiite         Element not present.    0.000e+00           0   0.000e+00
MgCl2:12H2O      -5.67    -2.98      2.68    0.000e+00           0   0.000e+00
MgCl2:8H2O       -6.88    -2.97      3.91    0.000e+00           0   0.000e+00
Mirabilite           Element not present.    0.000e+00           0   0.000e+00
Na2SO4:7H2O          Element not present.    0.000e+00           0   0.000e+00
Pentahydrite         Element not present.    0.000e+00           0   0.000e+00
Picromerite          Element not present.    0.000e+00           0   0.000e+00
Polyhalite           Element not present.    0.000e+00           0   0.000e+00
Starkeyite           Element not present.    0.000e+00           0   0.000e+00
Sylvite              Element not present.    0.000e+00           0   0.000e+00
Syngenite            Element not present.    0.000e+00           0   0.000e+00
Tachyhydrite         Element not present.    0.000e+00           0   0.000e+00
Thenardite           Element not present.    0.000e+00           0   0.000e+00

-----------------------------Solution composition------------------------------

	Elements           Molality       Moles

	Cl                2.471e-01   2.100e-02
	Mg                1.236e-01   1.050e-02

----------------------------Description of solution----------------------------

                                       pH  =   6.986      Charge balance
                                       pe  =   4.000      Adjusted to redox equilibrium
      Specific Conductance (µS/cm,  -1°C)  = 10386
                          Density (g/cm³)  =   1.00983
                               Volume (L)  =   0.08515
                        Activity of water  =   0.994
                 Ionic strength (mol/kgw)  =   3.707e-01
                       Mass of water (kg)  =   8.499e-02
                 Total alkalinity (eq/kg)  =  -2.076e-08
                         Temperature (°C)  =  -0.60
                  Electrical balance (eq)  =   1.765e-09
 Percent error, 100*(Cat-|An|)/(Cat+|An|)  =   0.00
                               Iterations  =  17 (1421 overall)
                         Gamma iterations  =   1
                      Osmotic coefficient  =   0.87088
                         Density of water  =   0.99980
                                  Total H  = 9.434972e+00
                                  Total O  = 4.717486e+00

----------------------------Distribution of species----------------------------

                                                    Unscaled  Unscaled
                                Unscaled       Log       Log       Log    mole V
   Species          Molality    Activity  Molality  Activity     Gamma    cm³/mol

   H+              1.794e-07   1.032e-07    -6.746    -6.986    -0.240      0.00
   OH-             1.587e-07   9.635e-08    -6.800    -7.016    -0.217     -5.42
   H2O             5.551e+01   9.942e-01     1.744    -0.003     0.000     18.02
Cl            2.471e-01
   Cl-             2.471e-01   1.966e-01    -0.607    -0.706    -0.099     16.84
Mg            1.236e-01
   Mg+2            1.236e-01   2.883e-02    -0.908    -1.540    -0.632    -19.86

------------------------------Saturation indices-------------------------------

  Phase               SI** log IAP   log K(272 K,   1 atm)

  Bischofite       -7.75     -2.97    4.78  MgCl2:6H2O
  Ice(s)            0.00     -0.00   -0.00  H2O
  MgCl2:12H2O      -5.67     -2.98    2.68  MgCl2:12H2O
  MgCl2:8H2O       -6.88     -2.97    3.91  MgCl2:8H2O

**For a gas, SI = log10(fugacity). Fugacity = pressure * phi / 1 atm.
  For ideal gases, phi = 1.

Reaction step 8.

Using solution 1.	
Using pure phase assemblage 1.	
Using temperature 1.	

-------------------------------Phase assemblage--------------------------------

                                                      Moles in assemblage
Phase               SI  log IAP  log K(T, P)   Initial       Final       Delta

Anhydrite            Element not present.    0.000e+00           0   0.000e+00
Antarcticite         Element not present.    0.000e+00           0   0.000e+00
Arcanite             Element not present.    0.000e+00           0   0.000e+00
Bassanite            Element not present.    0.000e+00           0   0.000e+00
Bischofite       -7.58    -2.80      4.78    0.000e+00           0   0.000e+00
Bloedite             Element not present.    0.000e+00           0   0.000e+00
Carnallite           Element not present.    0.000e+00           0   0.000e+00
Epsomite             Element not present.    0.000e+00           0   0.000e+00
Glaserite            Element not present.    0.000e+00           0   0.000e+00
Glauberite           Element not present.    0.000e+00           0   0.000e+00
Gypsum               Element not present.    0.000e+00           0   0.000e+00
Halite               Element not present.    0.000e+00           0   0.000e+00
Hexahydrite          Element not present.    0.000e+00           0   0.000e+00
Hydrohalite          Element not present.    0.000e+00           0   0.000e+00
Ice(s)            0.00    -0.00     -0.00    0.000e+00   5.146e+01   5.146e+01
Kainite              Element not present.    0.000e+00           0   0.000e+00
Kieserite            Element not present.    0.000e+00           0   0.000e+00
Labile_Salt          Element not present.    0.000e+00           0   0.000e+00
Langbeinite          Element not present.    0.000e+00           0   0.000e+00
Leonite              Element not present.    0.000e+00           0   0.000e+00
Meridianiite         Element not present.    0.000e+00           0   0.000e+00
MgCl2:12H2O      -5.49    -2.81      2.68    0.000e+00           0   0.000e+00
MgCl2:8H2O       -6.71    -2.80      3.91    0.000e+00           0   0.000e+00
Mirabilite           Element not present.    0.000e+00           0   0.000e+00
Na2SO4:7H2O          Element not present.    0.000e+00           0   0.000e+00
Pentahydrite         Element not present.    0.000e+00           0   0.000e+00
Picromerite          Element not present.    0.000e+00           0   0.000e+00
Polyhalite           Element not present.    0.000e+00           0   0.000e+00
Starkeyite           Element not present.    0.000e+00           0   0.000e+00
Sylvite              Element not present.    0.000e+00           0   0.000e+00
Syngenite            Element not present.    0.000e+00           0   0.000e+00
Tachyhydrite         Element not present.    0.000e+00           0   0.000e+00
Thenardite           Element not present.    0.000e+00           0   0.000e+00

-----------------------------Solution composition------------------------------

	Elements           Molality       Moles

	Cl                2.875e-01   2.100e-02
	Mg                1.438e-01   1.050e-02

----------------------------Description of solution----------------------------

                                       pH  =   6.984      Charge balance
                                       pe  =   4.000      Adjusted to redox equilibrium
      Specific Conductance (µS/cm,  -1°C)  = 11750
                          Density (g/cm³)  =   1.01145
                               Volume (L)  =   0.07320
                        Activity of water  =   0.993
                 Ionic strength (mol/kgw)  =   4.313e-01
                       Mass of water (kg)  =   7.304e-02
                 Total alkalinity (eq/kg)  =  -2.416e-08
                         Temperature (°C)  =  -0.70
                  Electrical balance (eq)  =   1.765e-09
 Percent error, 100*(Cat-|An|)/(Cat+|An|)  =   0.00
                               Iterations  =  18 (1422 overall)
                         Gamma iterations  =   1
                      Osmotic coefficient  =   0.87325
                         Density of water  =   0.99979
                                  Total H  = 8.108550e+00
                                  Total O  = 4.054275e+00

----------------------------Distribution of species----------------------------

                                                    Unscaled  Unscaled
                                Unscaled       Log       Log       Log    mole V
   Species          Molality    Activity  Molality  Activity     Gamma    cm³/mol

   H+              1.867e-07   1.037e-07    -6.729    -6.984    -0.255      0.00
   OH-             1.625e-07   9.578e-08    -6.789    -7.019    -0.230     -5.34
   H2O             5.551e+01   9.932e-01     1.744    -0.003     0.000     18.02
Cl            2.875e-01
   Cl-             2.875e-01   2.293e-01    -0.541    -0.640    -0.098     16.87
Mg            1.438e-01
   Mg+2            1.438e-01   3.174e-02    -0.842    -1.498    -0.656    -19.81

------------------------------Saturation indices-------------------------------

  Phase               SI** log IAP   log K(272 K,   1 atm)

  Bischofite       -7.58     -2.80    4.78  MgCl2:6H2O
  Ice(s)            0.00     -0.00   -0.00  H2O
  MgCl2:12H2O      -5.49     -2.81    2.68  MgCl2:12H2O
  MgCl2:8H2O       -6.71     -2.80    3.91  MgCl2:8H2O

**For a gas, SI = log10(fugacity). Fugacity = pressure * phi / 1 atm.
  For ideal gases, phi = 1.

Reaction step 9.

Using solution 1.	
Using pure phase assemblage 1.	
Using temperature 1.	

-------------------------------Phase assemblage--------------------------------

                                                      Moles in assemblage
Phase               SI  log IAP  log K(T, P)   Initial       Final       Delta

Anhydrite            Element not present.    0.000e+00           0   0.000e+00
Antarcticite         Element not present.    0.000e+00           0   0.000e+00
Arcanite             Element not present.    0.000e+00           0   0.000e+00
Bassanite            Element not present.    0.000e+00           0   0.000e+00
Bischofite       -7.43    -2.65      4.78    0.000e+00           0   0.000e+00
Bloedite             Element not present.    0.000e+00           0   0.000e+00
Carnallite           Element not present.    0.000e+00           0   0.000e+00
Epsomite             Element not present.    0.000e+00           0   0.000e+00
Glaserite            Element not present.    0.000e+00           0   0.000e+00
Glauberite           Element not present.    0.000e+00           0   0.000e+00
Gypsum               Element not present.    0.000e+00           0   0.000e+00
Halite               Element not present.    0.000e+00           0   0.000e+00
Hexahydrite          Element not present.    0.000e+00           0   0.000e+00
Hydrohalite          Element not present.    0.000e+00           0   0.000e+00
Ice(s)            0.00    -0.00     -0.00    0.000e+00   5.195e+01   5.195e+01
Kainite              Element not present.    0.000e+00           0   0.000e+00
Kieserite            Element not present.    0.000e+00           0   0.000e+00
Labile_Salt          Element not present.    0.000e+00           0   0.000e+00
Langbeinite          Element not present.    0.000e+00           0   0.000e+00
Leonite              Element not present.    0.000e+00           0   0.000e+00
Meridianiite         Element not present.    0.000e+00           0   0.000e+00
MgCl2:12H2O      -5.34    -2.67      2.68    0.000e+00           0   0.000e+00
MgCl2:8H2O       -6.56    -2.65      3.91    0.000e+00           0   0.000e+00
Mirabilite           Element not present.    0.000e+00           0   0.000e+00
Na2SO4:7H2O          Element not present.    0.000e+00           0   0.000e+00
Pentahydrite         Element not present.    0.000e+00           0   0.000e+00
Picromerite          Element not present.    0.000e+00           0   0.000e+00
Polyhalite           Element not present.    0.000e+00           0   0.000e+00
Starkeyite           Element not present.    0.000e+00           0   0.000e+00
Sylvite              Element not present.    0.000e+00           0   0.000e+00
Syngenite            Element not present.    0.000e+00           0   0.000e+00
Tachyhydrite         Element not present.    0.000e+00           0   0.000e+00
Thenardite           Element not present.    0.000e+00           0   0.000e+00

-----------------------------Solution composition------------------------------

	Elements           Molality       Moles

	Cl                3.275e-01   2.100e-02
	Mg                1.638e-01   1.050e-02

----------------------------Description of solution----------------------------

                                       pH  =   6.982      Charge balance
                                       pe  =   4.000      Adjusted to redox equilibrium
      Specific Conductance (µS/cm,  -1°C)  = 13040
                          Density (g/cm³)  =   1.01304
                               Volume (L)  =   0.06428
                        Activity of water  =   0.992
                 Ionic strength (mol/kgw)  =   4.913e-01
                       Mass of water (kg)  =   6.412e-02
                 Total alkalinity (eq/kg)  =  -2.752e-08
                         Temperature (°C)  =  -0.80
                  Electrical balance (eq)  =   1.765e-09
 Percent error, 100*(Cat-|An|)/(Cat+|An|)  =   0.00
                               Iterations  =  19 (1423 overall)
                         Gamma iterations  =   1
                      Osmotic coefficient  =   0.87615
                         Density of water  =   0.99978
                                  Total H  = 7.118120e+00
                                  Total O  = 3.559060e+00

----------------------------Distribution of species----------------------------

                                                    Unscaled  Unscaled
                                Unscaled       Log       Log       Log    mole V
   Species          Molality    Activity  Molality  Activity     Gamma    cm³/mol

   H+              1.935e-07   1.042e-07    -6.713    -6.982    -0.269      0.00
   OH-             1.660e-07   9.523e-08    -6.780    -7.021    -0.241     -5.26
   H2O             5.551e+01   9.923e-01     1.744    -0.003     0.000     18.02
Cl            3.275e-01
   Cl-             3.275e-01   2.621e-01    -0.485    -0.582    -0.097     16.90
Mg            1.638e-01
   Mg+2            1.638e-01   3.449e-02    -0.786    -1.462    -0.676    -19.76

------------------------------Saturation indices-------------------------------

  Phase               SI** log IAP   log K(272 K,   1 atm)

  Bischofite       -7.43     -2.65    4.78  MgCl2:6H2O
  Ice(s)            0.00     -0.00   -0.00  H2O
  MgCl2:12H2O      -5.34     -2.67    2.68  MgCl2:12H2O
  MgCl2:8H2O       -6.56     -2.65    3.91  MgCl2:8H2O

**For a gas, SI = log10(fugacity). Fugacity = pressure * phi / 1 atm.
  For ideal gases, phi = 1.

Reaction step 10.

Using solution 1.	
Using pure phase assemblage 1.	
Using temperature 1.	

-------------------------------Phase assemblage--------------------------------

                                                      Moles in assemblage
Phase               SI  log IAP  log K(T, P)   Initial       Final       Delta

Anhydrite            Element not present.    0.000e+00           0   0.000e+00
Antarcticite         Element not present.    0.000e+00           0   0.000e+00
Arcanite             Element not present.    0.000e+00           0   0.000e+00
Bassanite            Element not present.    0.000e+00           0   0.000e+00
Bischofite       -7.30    -2.51      4.78    0.000e+00           0   0.000e+00
Bloedite             Element not present.    0.000e+00           0   0.000e+00
Carnallite           Element not present.    0.000e+00           0   0.000e+00
Epsomite             Element not present.    0.000e+00           0   0.000e+00
Glaserite            Element not present.    0.000e+00           0   0.000e+00
Glauberite           Element not present.    0.000e+00           0   0.000e+00
Gypsum               Element not present.    0.000e+00           0   0.000e+00
Halite               Element not present.    0.000e+00           0   0.000e+00
Hexahydrite          Element not present.    0.000e+00           0   0.000e+00
Hydrohalite          Element not present.    0.000e+00           0   0.000e+00
Ice(s)            0.00    -0.00     -0.00    0.000e+00   5.233e+01   5.233e+01
Kainite              Element not present.    0.000e+00           0   0.000e+00
Kieserite            Element not present.    0.000e+00           0   0.000e+00
Labile_Salt          Element not present.    0.000e+00           0   0.000e+00
Langbeinite          Element not present.    0.000e+00           0   0.000e+00
Leonite              Element not present.    0.000e+00           0   0.000e+00
Meridianiite         Element not present.    0.000e+00           0   0.000e+00
MgCl2:12H2O      -5.21    -2.54      2.67    0.000e+00           0   0.000e+00
MgCl2:8H2O       -6.43    -2.52      3.91    0.000e+00           0   0.000e+00
Mirabilite           Element not present.    0.000e+00           0   0.000e+00
Na2SO4:7H2O          Element not present.    0.000e+00           0   0.000e+00
Pentahydrite         Element not present.    0.000e+00           0   0.000e+00
Picromerite          Element not present.    0.000e+00           0   0.000e+00
Polyhalite           Element not present.    0.000e+00           0   0.000e+00
Starkeyite           Element not present.    0.000e+00           0   0.000e+00
Sylvite              Element not present.    0.000e+00           0   0.000e+00
Syngenite            Element not present.    0.000e+00           0   0.000e+00
Tachyhydrite         Element not present.    0.000e+00           0   0.000e+00
Thenardite           Element not present.    0.000e+00           0   0.000e+00

-----------------------------Solution composition------------------------------

	Elements           Molality       Moles

	Cl                3.671e-01   2.100e-02
	Mg                1.836e-01   1.050e-02

----------------------------Description of solution----------------------------

                                       pH  =   6.980      Charge balance
                                       pe  =   4.000      Adjusted to redox equilibrium
      Specific Conductance (µS/cm,  -1°C)  = 14262
                          Density (g/cm³)  =   1.01461
                               Volume (L)  =   0.05736
                        Activity of water  =   0.991
                 Ionic strength (mol/kgw)  =   5.507e-01
                       Mass of water (kg)  =   5.720e-02
                 Total alkalinity (eq/kg)  =  -3.085e-08
                         Temperature (°C)  =  -0.90
                  Electrical balance (eq)  =   1.765e-09
 Percent error, 100*(Cat-|An|)/(Cat+|An|)  =   0.00
                               Iterations  =  19 (1423 overall)
                         Gamma iterations  =   1
                      Osmotic coefficient  =   0.87944
                         Density of water  =   0.99977
                                  Total H  = 6.350595e+00
                                  Total O  = 3.175297e+00

----------------------------Distribution of species----------------------------

                                                    Unscaled  Unscaled
                                Unscaled       Log       Log       Log    mole V
   Species          Molality    Activity  Molality  Activity     Gamma    cm³/mol

   H+              2.001e-07   1.047e-07    -6.699    -6.980    -0.281      0.00
   OH-             1.692e-07   9.470e-08    -6.772    -7.024    -0.252     -5.18
   H2O             5.551e+01   9.913e-01     1.744    -0.004     0.000     18.02
Cl            3.671e-01
   Cl-             3.671e-01   2.951e-01    -0.435    -0.530    -0.095     16.92
Mg            1.836e-01
   Mg+2            1.836e-01   3.713e-02    -0.736    -1.430    -0.694    -19.72

------------------------------Saturation indices-------------------------------

  Phase               SI** log IAP   log K(272 K,   1 atm)

  Bischofite       -7.30     -2.51    4.78  MgCl2:6H2O
  Ice(s)            0.00     -0.00   -0.00  H2O
  MgCl2:12H2O      -5.21     -2.54    2.67  MgCl2:12H2O
  MgCl2:8H2O       -6.43     -2.52    3.91  MgCl2:8H2O

**For a gas, SI = log10(fugacity). Fugacity = pressure * phi / 1 atm.
  For ideal gases, phi = 1.

Reaction step 11.

Using solution 1.	
Using pure phase assemblage 1.	
Using temperature 1.	

-------------------------------Phase assemblage--------------------------------

                                                      Moles in assemblage
Phase               SI  log IAP  log K(T, P)   Initial       Final       Delta

Anhydrite            Element not present.    0.000e+00           0   0.000e+00
Antarcticite         Element not present.    0.000e+00           0   0.000e+00
Arcanite             Element not present.    0.000e+00           0   0.000e+00
Bassanite            Element not present.    0.000e+00           0   0.000e+00
Bischofite       -7.18    -2.39      4.78    0.000e+00           0   0.000e+00
Bloedite             Element not present.    0.000e+00           0   0.000e+00
Carnallite           Element not present.    0.000e+00           0   0.000e+00
Epsomite             Element not present.    0.000e+00           0   0.000e+00
Glaserite            Element not present.    0.000e+00           0   0.000e+00
Glauberite           Element not present.    0.000e+00           0   0.000e+00
Gypsum               Element not present.    0.000e+00           0   0.000e+00
Halite               Element not present.    0.000e+00           0   0.000e+00
Hexahydrite          Element not present.    0.000e+00           0   0.000e+00
Hydrohalite          Element not present.    0.000e+00           0   0.000e+00
Ice(s)            0.00    -0.00     -0.00    0.000e+00   5.264e+01   5.264e+01
Kainite              Element not present.    0.000e+00           0   0.000e+00
Kieserite            Element not present.    0.000e+00           0   0.000e+00
Labile_Salt          Element not present.    0.000e+00           0   0.000e+00
Langbeinite          Element not present.    0.000e+00           0   0.000e+00
Leonite              Element not present.    0.000e+00           0   0.000e+00
Meridianiite         Element not present.    0.000e+00           0   0.000e+00
MgCl2:12H2O      -5.09    -2.42      2.67    0.000e+00           0   0.000e+00
MgCl2:8H2O       -6.31    -2.40      3.91    0.000e+00           0   0.000e+00
Mirabilite           Element not present.    0.000e+00           0   0.000e+00
Na2SO4:7H2O          Element not present.    0.000e+00           0   0.000e+00
Pentahydrite         Element not present.    0.000e+00           0   0.000e+00
Picromerite          Element not present.    0.000e+00           0   0.000e+00
Polyhalite           Element not present.    0.000e+00           0   0.000e+00
Starkeyite           Element not present.    0.000e+00           0   0.000e+00
Sylvite              Element not present.    0.000e+00           0   0.000e+00
Syngenite            Element not present.    0.000e+00           0   0.000e+00
Tachyhydrite         Element not present.    0.000e+00           0   0.000e+00
Thenardite           Element not present.    0.000e+00           0   0.000e+00

-----------------------------Solution composition------------------------------

	Elements           Molality       Moles

	Cl                4.063e-01   2.100e-02
	Mg                2.031e-01   1.050e-02

----------------------------Description of solution----------------------------

                                       pH  =   6.978      Charge balance
                                       pe  =   4.000      Adjusted to redox equilibrium
      Specific Conductance (µS/cm,  -1°C)  = 15421
                          Density (g/cm³)  =   1.01616
                               Volume (L)  =   0.05185
                        Activity of water  =   0.990
                 Ionic strength (mol/kgw)  =   6.094e-01
                       Mass of water (kg)  =   5.169e-02
                 Total alkalinity (eq/kg)  =  -3.414e-08
                         Temperature (°C)  =  -1.00
                  Electrical balance (eq)  =   1.765e-09
 Percent error, 100*(Cat-|An|)/(Cat+|An|)  =   0.00
                               Iterations  =  20 (1424 overall)
                         Gamma iterations  =   1
                      Osmotic coefficient  =   0.88303
                         Density of water  =   0.99976
                                  Total H  = 5.738475e+00
                                  Total O  = 2.869238e+00

----------------------------Distribution of species----------------------------

                                                    Unscaled  Unscaled
                                Unscaled       Log       Log       Log    mole V
   Species          Molality    Activity  Molality  Activity     Gamma    cm³/mol

   H+              2.063e-07   1.051e-07    -6.686    -6.978    -0.293      0.00
   OH-             1.721e-07   9.419e-08    -6.764    -7.026    -0.262     -5.10
   H2O             5.551e+01   9.904e-01     1.744    -0.004     0.000     18.02
Cl            4.063e-01
   Cl-             4.063e-01   3.282e-01    -0.391    -0.484    -0.093     16.95
Mg            2.031e-01
   Mg+2            2.031e-01   3.968e-02    -0.692    -1.401    -0.709    -19.67

------------------------------Saturation indices-------------------------------

  Phase               SI** log IAP   log K(272 K,   1 atm)

  Bischofite       -7.18     -2.39    4.78  MgCl2:6H2O
  Ice(s)            0.00     -0.00   -0.00  H2O
  MgCl2:12H2O      -5.09     -2.42    2.67  MgCl2:12H2O
  MgCl2:8H2O       -6.31     -2.40    3.91  MgCl2:8H2O

**For a gas, SI = log10(fugacity). Fugacity = pressure * phi / 1 atm.
  For ideal gases, phi = 1.

Reaction step 12.

Using solution 1.	
Using pure phase assemblage 1.	
Using temperature 1.	

-------------------------------Phase assemblage--------------------------------

                                                      Moles in assemblage
Phase               SI  log IAP  log K(T, P)   Initial       Final       Delta

Anhydrite            Element not present.    0.000e+00           0   0.000e+00
Antarcticite         Element not present.    0.000e+00           0   0.000e+00
Arcanite             Element not present.    0.000e+00           0   0.000e+00
Bassanite            Element not present.    0.000e+00           0   0.000e+00
Bischofite       -7.07    -2.29      4.78    0.000e+00           0   0.000e+00
Bloedite             Element not present.    0.000e+00           0   0.000e+00
Carnallite           Element not present.    0.000e+00           0   0.000e+00
Epsomite             Element not present.    0.000e+00           0   0.000e+00
Glaserite            Element not present.    0.000e+00           0   0.000e+00
Glauberite           Element not present.    0.000e+00           0   0.000e+00
Gypsum               Element not present.    0.000e+00           0   0.000e+00
Halite               Element not present.    0.000e+00           0   0.000e+00
Hexahydrite          Element not present.    0.000e+00           0   0.000e+00
Hydrohalite          Element not present.    0.000e+00           0   0.000e+00
Ice(s)            0.00    -0.00     -0.00    0.000e+00   5.289e+01   5.289e+01
Kainite              Element not present.    0.000e+00           0   0.000e+00
Kieserite            Element not present.    0.000e+00           0   0.000e+00
Labile_Salt          Element not present.    0.000e+00           0   0.000e+00
Langbeinite          Element not present.    0.000e+00           0   0.000e+00
Leonite              Element not present.    0.000e+00           0   0.000e+00
Meridianiite         Element not present.    0.000e+00           0   0.000e+00
MgCl2:12H2O      -4.98    -2.31      2.67    0.000e+00           0   0.000e+00
MgCl2:8H2O       -6.20    -2.30      3.91    0.000e+00           0   0.000e+00
Mirabilite           Element not present.    0.000e+00           0   0.000e+00
Na2SO4:7H2O          Element not present.    0.000e+00           0   0.000e+00
Pentahydrite         Element not present.    0.000e+00           0   0.000e+00
Picromerite          Element not present.    0.000e+00           0   0.000e+00
Polyhalite           Element not present.    0.000e+00           0   0.000e+00
Starkeyite           Element not present.    0.000e+00           0   0.000e+00
Sylvite              Element not present.    0.000e+00           0   0.000e+00
Syngenite            Element not present.    0.000e+00           0   0.000e+00
Tachyhydrite         Element not present.    0.000e+00           0   0.000e+00
Thenardite           Element not present.    0.000e+00           0   0.000e+00

-----------------------------Solution composition------------------------------

	Elements           Molality       Moles

	Cl                4.450e-01   2.100e-02
	Mg                2.225e-01   1.050e-02

----------------------------Description of solution----------------------------

                                       pH  =   6.976      Charge balance
                                       pe  =   4.000      Adjusted to redox equilibrium
      Specific Conductance (µS/cm,  -1°C)  = 16522
                          Density (g/cm³)  =   1.01770
                               Volume (L)  =   0.04735
                        Activity of water  =   0.989
                 Ionic strength (mol/kgw)  =   6.675e-01
                       Mass of water (kg)  =   4.719e-02
                 Total alkalinity (eq/kg)  =  -3.739e-08
                         Temperature (°C)  =  -1.10
                  Electrical balance (eq)  =   1.765e-09
 Percent error, 100*(Cat-|An|)/(Cat+|An|)  =   0.00
                               Iterations  =  20 (1424 overall)
                         Gamma iterations  =   1
                      Osmotic coefficient  =   0.88684
                         Density of water  =   0.99975
                                  Total H  = 5.238993e+00
                                  Total O  = 2.619496e+00

[...]
Pentahydrite         Element not present.    0.000e+00           0   0.000e+00
Picromerite          Element not present.    0.000e+00           0   0.000e+00
Polyhalite           Element not present.    0.000e+00           0   0.000e+00
Starkeyite           Element not present.    0.000e+00           0   0.000e+00
Sylvite              Element not present.    0.000e+00           0   0.000e+00
Syngenite            Element not present.    0.000e+00           0   0.000e+00
Tachyhydrite         Element not present.    0.000e+00           0   0.000e+00
Thenardite           Element not present.    0.000e+00           0   0.000e+00

-----------------------------Solution composition------------------------------

	Elements           Molality       Moles

	Cl                5.880e+00   3.644e-09
	Mg                2.940e+00   1.822e-09

----------------------------Description of solution----------------------------

                                       pH  =   0.181      Charge balance
                                       pe  =   4.000      Adjusted to redox equilibrium
      Specific Conductance (µS/cm, -40°C)  = 13425
                          Density (g/cm³)  =   1.39767
                               Volume (L)  =   0.00000
                        Activity of water  =   0.676
                 Ionic strength (mol/kgw)  =   1.024e+01
                       Mass of water (kg)  =   6.197e-10
                 Total alkalinity (eq/kg)  =  -2.847e+00
                         Temperature (°C)  = -39.70
                  Electrical balance (eq)  =   1.765e-09
 Percent error, 100*(Cat-|An|)/(Cat+|An|)  =  19.49
                               Iterations  = 123 (1527 overall)
                         Gamma iterations  =   1
                      Osmotic coefficient  =   1.86219
                         Density of water  =   0.96732
                                  Total H  = 7.056408e-08
                                  Total O  = 3.439974e-08

----------------------------Distribution of species----------------------------

                                                    Unscaled  Unscaled
                                Unscaled       Log       Log       Log    mole V
   Species          Molality    Activity  Molality  Activity     Gamma    cm³/mol

   H+              2.847e+00   6.598e-01     0.454    -0.181    -0.635      0.00
   OH-             3.437e-14   1.025e-14   -13.464   -13.989    -0.526    -47.47
   H2O             5.551e+01   6.761e-01     1.744    -0.170     0.000     18.62
Cl            5.880e+00
   Cl-             5.880e+00   2.815e+01     0.769     1.450     0.680      8.05
Mg            2.940e+00
   Mg+2            2.940e+00   4.055e+00     0.468     0.608     0.140    -55.55

------------------------------Saturation indices-------------------------------

  Phase               SI** log IAP   log K(233 K,   1 atm)

  Bischofite       -2.62      2.49    5.11  MgCl2:6H2O
  Ice(s)            0.00     -0.17   -0.17  H2O
  MgCl2:12H2O       0.00      1.47    1.47  MgCl2:12H2O
  MgCl2:8H2O       -1.27      2.15    3.42  MgCl2:8H2O

**For a gas, SI = log10(fugacity). Fugacity = pressure * phi / 1 atm.
  For ideal gases, phi = 1.

Reaction step 399.

Using solution 1.	
Using pure phase assemblage 1.	
Using temperature 1.	

-------------------------------Phase assemblage--------------------------------

                                                      Moles in assemblage
Phase               SI  log IAP  log K(T, P)   Initial       Final       Delta

Anhydrite            Element not present.    0.000e+00           0   0.000e+00
Antarcticite         Element not present.    0.000e+00           0   0.000e+00
Arcanite             Element not present.    0.000e+00           0   0.000e+00
Bassanite            Element not present.    0.000e+00           0   0.000e+00
Bischofite       -2.63     2.49      5.11    0.000e+00           0   0.000e+00
Bloedite             Element not present.    0.000e+00           0   0.000e+00
Carnallite           Element not present.    0.000e+00           0   0.000e+00
Epsomite             Element not present.    0.000e+00           0   0.000e+00
Glaserite            Element not present.    0.000e+00           0   0.000e+00
Glauberite           Element not present.    0.000e+00           0   0.000e+00
Gypsum               Element not present.    0.000e+00           0   0.000e+00
Halite               Element not present.    0.000e+00           0   0.000e+00
Hexahydrite          Element not present.    0.000e+00           0   0.000e+00
Hydrohalite          Element not present.    0.000e+00           0   0.000e+00
Ice(s)            0.00    -0.17     -0.17    0.000e+00   5.538e+01   5.538e+01
Kainite              Element not present.    0.000e+00           0   0.000e+00
Kieserite            Element not present.    0.000e+00           0   0.000e+00
Labile_Salt          Element not present.    0.000e+00           0   0.000e+00
Langbeinite          Element not present.    0.000e+00           0   0.000e+00
Leonite              Element not present.    0.000e+00           0   0.000e+00
Meridianiite         Element not present.    0.000e+00           0   0.000e+00
MgCl2:12H2O       0.00     1.46      1.46    0.000e+00   1.050e-02   1.050e-02
MgCl2:8H2O       -1.27     2.15      3.42    0.000e+00           0   0.000e+00
Mirabilite           Element not present.    0.000e+00           0   0.000e+00
Na2SO4:7H2O          Element not present.    0.000e+00           0   0.000e+00
Pentahydrite         Element not present.    0.000e+00           0   0.000e+00
Picromerite          Element not present.    0.000e+00           0   0.000e+00
Polyhalite           Element not present.    0.000e+00           0   0.000e+00
Starkeyite           Element not present.    0.000e+00           0   0.000e+00
Sylvite              Element not present.    0.000e+00           0   0.000e+00
Syngenite            Element not present.    0.000e+00           0   0.000e+00
Tachyhydrite         Element not present.    0.000e+00           0   0.000e+00
Thenardite           Element not present.    0.000e+00           0   0.000e+00

-----------------------------Solution composition------------------------------

	Elements           Molality       Moles

	Cl                5.883e+00   3.591e-09
	Mg                2.941e+00   1.795e-09

----------------------------Description of solution----------------------------

                                       pH  =   0.174      Charge balance
                                       pe  =   4.000      Adjusted to redox equilibrium
      Specific Conductance (µS/cm, -40°C)  = 13356
                          Density (g/cm³)  =   1.40336
                               Volume (L)  =   0.00000
                        Activity of water  =   0.675
                 Ionic strength (mol/kgw)  =   1.027e+01
                       Mass of water (kg)  =   6.104e-10
                 Total alkalinity (eq/kg)  =  -2.891e+00
                         Temperature (°C)  = -39.80
                  Electrical balance (eq)  =   1.765e-09
 Percent error, 100*(Cat-|An|)/(Cat+|An|)  =  19.73
                               Iterations  = 123 (1527 overall)
                         Gamma iterations  =   1
                      Osmotic coefficient  =   1.85929
                         Density of water  =   0.96709
                                  Total H  = 6.952760e-08
                                  Total O  = 3.388150e-08

----------------------------Distribution of species----------------------------

                                                    Unscaled  Unscaled
                                Unscaled       Log       Log       Log    mole V
   Species          Molality    Activity  Molality  Activity     Gamma    cm³/mol

   H+              2.891e+00   6.701e-01     0.461    -0.174    -0.635      0.00
   OH-             3.380e-14   1.008e-14   -13.471   -13.997    -0.525    -48.59
   H2O             5.551e+01   6.754e-01     1.744    -0.170     0.000     18.63
Cl            5.883e+00
   Cl-             5.883e+00   2.821e+01     0.770     1.450     0.681      7.92
Mg            2.941e+00
   Mg+2            2.941e+00   4.055e+00     0.469     0.608     0.139    -56.59

------------------------------Saturation indices-------------------------------

  Phase               SI** log IAP   log K(233 K,   1 atm)

  Bischofite       -2.63      2.49    5.11  MgCl2:6H2O
  Ice(s)            0.00     -0.17   -0.17  H2O
  MgCl2:12H2O       0.00      1.46    1.46  MgCl2:12H2O
  MgCl2:8H2O       -1.27      2.15    3.42  MgCl2:8H2O

**For a gas, SI = log10(fugacity). Fugacity = pressure * phi / 1 atm.
  For ideal gases, phi = 1.

Reaction step 400.

Using solution 1.	
Using pure phase assemblage 1.	
Using temperature 1.	

-------------------------------Phase assemblage--------------------------------

                                                      Moles in assemblage
Phase               SI  log IAP  log K(T, P)   Initial       Final       Delta

Anhydrite            Element not present.    0.000e+00           0   0.000e+00
Antarcticite         Element not present.    0.000e+00           0   0.000e+00
Arcanite             Element not present.    0.000e+00           0   0.000e+00
Bassanite            Element not present.    0.000e+00           0   0.000e+00
Bischofite       -2.63     2.49      5.11    0.000e+00           0   0.000e+00
Bloedite             Element not present.    0.000e+00           0   0.000e+00
Carnallite           Element not present.    0.000e+00           0   0.000e+00
Epsomite             Element not present.    0.000e+00           0   0.000e+00
Glaserite            Element not present.    0.000e+00           0   0.000e+00
Glauberite           Element not present.    0.000e+00           0   0.000e+00
Gypsum               Element not present.    0.000e+00           0   0.000e+00
Halite               Element not present.    0.000e+00           0   0.000e+00
Hexahydrite          Element not present.    0.000e+00           0   0.000e+00
Hydrohalite          Element not present.    0.000e+00           0   0.000e+00
Ice(s)            0.00    -0.17     -0.17    0.000e+00   5.538e+01   5.538e+01
Kainite              Element not present.    0.000e+00           0   0.000e+00
Kieserite            Element not present.    0.000e+00           0   0.000e+00
Labile_Salt          Element not present.    0.000e+00           0   0.000e+00
Langbeinite          Element not present.    0.000e+00           0   0.000e+00
Leonite              Element not present.    0.000e+00           0   0.000e+00
Meridianiite         Element not present.    0.000e+00           0   0.000e+00
MgCl2:12H2O       0.00     1.46      1.46    0.000e+00   1.050e-02   1.050e-02
MgCl2:8H2O       -1.27     2.14      3.42    0.000e+00           0   0.000e+00
Mirabilite           Element not present.    0.000e+00           0   0.000e+00
Na2SO4:7H2O          Element not present.    0.000e+00           0   0.000e+00
Pentahydrite         Element not present.    0.000e+00           0   0.000e+00
Picromerite          Element not present.    0.000e+00           0   0.000e+00
Polyhalite           Element not present.    0.000e+00           0   0.000e+00
Starkeyite           Element not present.    0.000e+00           0   0.000e+00
Sylvite              Element not present.    0.000e+00           0   0.000e+00
Syngenite            Element not present.    0.000e+00           0   0.000e+00
Tachyhydrite         Element not present.    0.000e+00           0   0.000e+00
Thenardite           Element not present.    0.000e+00           0   0.000e+00

-----------------------------Solution composition------------------------------

	Elements           Molality       Moles

	Cl                5.886e+00   3.539e-09
	Mg                2.943e+00   1.770e-09

----------------------------Description of solution----------------------------

                                       pH  =   0.167      Charge balance
                                       pe  =   4.000      Adjusted to redox equilibrium
      Specific Conductance (µS/cm, -40°C)  = 13284
                          Density (g/cm³)  =   1.40942
                               Volume (L)  =   0.00000
                        Activity of water  =   0.675
                 Ionic strength (mol/kgw)  =   1.030e+01
                       Mass of water (kg)  =   6.013e-10
                 Total alkalinity (eq/kg)  =  -2.935e+00
                         Temperature (°C)  = -39.90
                  Electrical balance (eq)  =   1.765e-09
 Percent error, 100*(Cat-|An|)/(Cat+|An|)  =  19.96
                               Iterations  = 123 (1527 overall)
                         Gamma iterations  =   1
                      Osmotic coefficient  =   1.85641
                         Density of water  =   0.96684
                                  Total H  = 6.852192e-08
                                  Total O  = 3.337866e-08

----------------------------Distribution of species----------------------------

                                                    Unscaled  Unscaled
                                Unscaled       Log       Log       Log    mole V
   Species          Molality    Activity  Molality  Activity     Gamma    cm³/mol

   H+              2.935e+00   6.805e-01     0.468    -0.167    -0.635      0.00
   OH-             3.324e-14   9.916e-15   -13.478   -14.004    -0.525    -49.76
   H2O             5.551e+01   6.748e-01     1.744    -0.171     0.000     18.63
Cl            5.886e+00
   Cl-             5.886e+00   2.826e+01     0.770     1.451     0.681      7.76
Mg            2.943e+00
   Mg+2            2.943e+00   4.056e+00     0.469     0.608     0.139    -57.62

------------------------------Saturation indices-------------------------------

  Phase               SI** log IAP   log K(233 K,   1 atm)

  Bischofite       -2.63      2.49    5.11  MgCl2:6H2O
  Ice(s)            0.00     -0.17   -0.17  H2O
  MgCl2:12H2O       0.00      1.46    1.46  MgCl2:12H2O
  MgCl2:8H2O       -1.27      2.14    3.42  MgCl2:8H2O

**For a gas, SI = log10(fugacity). Fugacity = pressure * phi / 1 atm.
  For ideal gases, phi = 1.

Reaction step 401.

Using solution 1.	
Using pure phase assemblage 1.	
Using temperature 1.	

-------------------------------Phase assemblage--------------------------------

                                                      Moles in assemblage
Phase               SI  log IAP  log K(T, P)   Initial       Final       Delta

Anhydrite            Element not present.    0.000e+00           0   0.000e+00
Antarcticite         Element not present.    0.000e+00           0   0.000e+00
Arcanite             Element not present.    0.000e+00           0   0.000e+00
Bassanite            Element not present.    0.000e+00           0   0.000e+00
Bischofite       -2.63     2.48      5.11    0.000e+00           0   0.000e+00
Bloedite             Element not present.    0.000e+00           0   0.000e+00
Carnallite           Element not present.    0.000e+00           0   0.000e+00
Epsomite             Element not present.    0.000e+00           0   0.000e+00
Glaserite            Element not present.    0.000e+00           0   0.000e+00
Glauberite           Element not present.    0.000e+00           0   0.000e+00
Gypsum               Element not present.    0.000e+00           0   0.000e+00
Halite               Element not present.    0.000e+00           0   0.000e+00
Hexahydrite          Element not present.    0.000e+00           0   0.000e+00
Hydrohalite          Element not present.    0.000e+00           0   0.000e+00
Ice(s)            0.00    -0.17     -0.17    0.000e+00   5.538e+01   5.538e+01
Kainite              Element not present.    0.000e+00           0   0.000e+00
Kieserite            Element not present.    0.000e+00           0   0.000e+00
Labile_Salt          Element not present.    0.000e+00           0   0.000e+00
Langbeinite          Element not present.    0.000e+00           0   0.000e+00
Leonite              Element not present.    0.000e+00           0   0.000e+00
Meridianiite         Element not present.    0.000e+00           0   0.000e+00
MgCl2:12H2O       0.00     1.46      1.46    0.000e+00   1.050e-02   1.050e-02
MgCl2:8H2O       -1.27     2.14      3.42    0.000e+00           0   0.000e+00
Mirabilite           Element not present.    0.000e+00           0   0.000e+00
Na2SO4:7H2O          Element not present.    0.000e+00           0   0.000e+00
Pentahydrite         Element not present.    0.000e+00           0   0.000e+00
Picromerite          Element not present.    0.000e+00           0   0.000e+00
Polyhalite           Element not present.    0.000e+00           0   0.000e+00
Starkeyite           Element not present.    0.000e+00           0   0.000e+00
Sylvite              Element not present.    0.000e+00           0   0.000e+00
Syngenite            Element not present.    0.000e+00           0   0.000e+00
Tachyhydrite         Element not present.    0.000e+00           0   0.000e+00
Thenardite           Element not present.    0.000e+00           0   0.000e+00

-----------------------------Solution composition------------------------------

	Elements           Molality       Moles

	Cl                5.888e+00   3.489e-09
	Mg                2.944e+00   1.745e-09

----------------------------Description of solution----------------------------

                                       pH  =   0.161      Charge balance
                                       pe  =   4.000      Adjusted to redox equilibrium
      Specific Conductance (µS/cm, -40°C)  = 13210
                          Density (g/cm³)  =   1.41576
                               Volume (L)  =   0.00000
                        Activity of water  =   0.674
                 Ionic strength (mol/kgw)  =   1.032e+01
                       Mass of water (kg)  =   5.925e-10
                 Total alkalinity (eq/kg)  =  -2.978e+00
                         Temperature (°C)  = -40.00
                  Electrical balance (eq)  =   1.765e-09
 Percent error, 100*(Cat-|An|)/(Cat+|An|)  =  20.18
                               Iterations  = 123 (1527 overall)
                         Gamma iterations  =   1
                      Osmotic coefficient  =   1.85356
                         Density of water  =   0.96660
                                  Total H  = 6.754568e-08
                                  Total O  = 3.289054e-08

----------------------------Distribution of species----------------------------

                                                    Unscaled  Unscaled
                                Unscaled       Log       Log       Log    mole V
   Species          Molality    Activity  Molality  Activity     Gamma    cm³/mol

   H+              2.978e+00   6.909e-01     0.474    -0.161    -0.635      0.00
   OH-             3.271e-14   9.757e-15   -13.485   -14.011    -0.525    -50.98
   H2O             5.551e+01   6.741e-01     1.744    -0.171     0.000     18.64
Cl            5.888e+00
   Cl-             5.888e+00   2.832e+01     0.770     1.452     0.682      7.60
Mg            2.944e+00
   Mg+2            2.944e+00   4.056e+00     0.469     0.608     0.139    -58.70

------------------------------Saturation indices-------------------------------

  Phase               SI** log IAP   log K(233 K,   1 atm)

  Bischofite       -2.63      2.48    5.11  MgCl2:6H2O
  Ice(s)            0.00     -0.17   -0.17  H2O
  MgCl2:12H2O       0.00      1.46    1.46  MgCl2:12H2O
  MgCl2:8H2O       -1.27      2.14    3.42  MgCl2:8H2O

**For a gas, SI = log10(fugacity). Fugacity = pressure * phi / 1 atm.
  For ideal gases, phi = 1.

------------------
End of simulation.
------------------

------------------------------------
Reading input data for simulation 2.
------------------------------------

--------------------------------
End of Run after 71.724 Seconds.
--------------------------------

