   Input file: C:\Users\nswol\Dropbox\Research\Projects\PHREEQC\frezchem_ColdChem\Binary\Na2SO4_1ppt.pqi
  Output file: C:\Users\nswol\Dropbox\Research\Projects\PHREEQC\frezchem_ColdChem\Binary\Na2SO4_1ppt.pqo
Database file: C:\Program Files (x86)\USGS\Phreeqc Interactive 3.7.3-15968\database\frezchem_ColdChem.dat

------------------
Reading data base.
------------------

	SOLUTION_MASTER_SPECIES								
	SOLUTION_SPECIES								
	PHASES								
	PITZER								
------------------------------------
Reading input data for simulation 1.
------------------------------------

	DATABASE C:\Program Files (x86)\USGS\Phreeqc Interactive 3.7.3-15968\database\frezchem_ColdChem.dat
	TITLE Na2SO4 (1 ppt) - frezchem_ColdChem.dat
	SOLUTION
		units	mol/kgw
			Na	0.0140	
			S	0.0070	
	EQUILIBRIUM_PHASES
		Halite		0.0	0.0
		Hydrohalite		0.0	0.0
		Sylvite		0.0	0.0
		Bischofite		0.0	0.0
		MgCl2:8H2O		0.0	0.0
		MgCl2:12H2O		0.0	0.0
		Antarcticite	0.0	0.0
		Tachyhydrite	0.0	0.0
		Carnallite		0.0	0.0
		Thenardite		0.0	0.0
		Na2SO4:7H2O		0.0	0.0
		Mirabilite		0.0	0.0
		Arcanite		0.0	0.0
		Kieserite		0.0	0.0
		Starkeyite		0.0	0.0
		Pentahydrite	0.0	0.0
		Hexahydrite		0.0	0.0
		Epsomite		0.0	0.0
		Meridianiite	0.0	0.0
		Anhydrite		0.0	0.0
		Bassanite		0.0	0.0
		Gypsum		0.0	0.0
		Glaserite		0.0	0.0
		Bloedite		0.0	0.0
		Glauberite		0.0	0.0
		Labile_Salt		0.0	0.0
		Leonite		0.0	0.0
		Picromerite		0.0	0.0
		Langbeinite		0.0	0.0
		Syngenite		0.0	0.0
		Kainite		0.0	0.0
		Polyhalite		0.0	0.0
		Ice(s) 		0.0	0.0
	REACTION_TEMPERATURE
	        0 -5.0 in 501 steps
	END
-----
TITLE
-----

 Na2SO4 (1 ppt) - frezchem_ColdChem.dat

-------------------------------------------
Beginning of initial solution calculations.
-------------------------------------------

Initial solution 1.	

-----------------------------Solution composition------------------------------

	Elements           Molality       Moles

	Na                1.400e-02   1.400e-02
	S                 7.000e-03   7.000e-03

----------------------------Description of solution----------------------------

                                       pH  =   7.000    
                                       pe  =   4.000    
      Specific Conductance (µS/cm,  25°C)  = 1560
                          Density (g/cm³)  =   0.99795
                               Volume (L)  =   1.00305
                        Activity of water  =   1.000
                 Ionic strength (mol/kgw)  =   2.100e-02
                       Mass of water (kg)  =   1.000e+00
                 Total alkalinity (eq/kg)  =   1.247e-09
                         Temperature (°C)  =  25.00
                  Electrical balance (eq)  =  -1.247e-09
 Percent error, 100*(Cat-|An|)/(Cat+|An|)  =  -0.00
                               Iterations  =   4
                         Gamma iterations  =   2
                      Osmotic coefficient  =   0.91049
                         Density of water  =   0.99704
                                  Total H  = 1.110186e+02
                                  Total O  = 5.553730e+01

----------------------------Distribution of species----------------------------

                                                    Unscaled  Unscaled
                                Unscaled       Log       Log       Log    mole V
   Species          Molality    Activity  Molality  Activity     Gamma    cm³/mol

   OH-             1.178e-07   9.997e-08    -6.929    -7.000    -0.071     -3.98
   H+              1.166e-07   1.000e-07    -6.933    -7.000    -0.067      0.00
   H2O             5.551e+01   9.997e-01     1.744    -0.000     0.000     18.07
Na            1.400e-02
   Na+             1.400e-02   1.215e-02    -1.854    -1.915    -0.061     -1.32
S(6)          7.000e-03
   SO4-2           7.000e-03   3.882e-03    -2.155    -2.411    -0.256     14.95

------------------------------Saturation indices-------------------------------

  Phase               SI** log IAP   log K(298 K,   1 atm)

  Ice(s)           -0.10     -0.00    0.10  H2O
  Mirabilite       -5.02     -6.24   -1.22  Na2SO4:10H2O
  Na2SO4:7H2O      -5.57     -6.24   -0.67  Na2SO4:7H2O
  Thenardite       -5.94     -6.24   -0.30  Na2SO4

**For a gas, SI = log10(fugacity). Fugacity = pressure * phi / 1 atm.
  For ideal gases, phi = 1.

-----------------------------------------
Beginning of batch-reaction calculations.
-----------------------------------------

Reaction step 1.

WARNING: Element Ca is contained in Anhydrite (which has 0.0 mass),	
but is not in solution or other phases.
WARNING: Element Ca is contained in Antarcticite (which has 0.0 mass),	
but is not in solution or other phases.
WARNING: Element Cl is contained in Antarcticite (which has 0.0 mass),	
but is not in solution or other phases.
WARNING: Element K is contained in Arcanite (which has 0.0 mass),	
but is not in solution or other phases.
WARNING: Element Ca is contained in Bassanite (which has 0.0 mass),	
but is not in solution or other phases.
WARNING: Element Cl is contained in Bischofite (which has 0.0 mass),	
but is not in solution or other phases.
WARNING: Element Mg is contained in Bischofite (which has 0.0 mass),	
but is not in solution or other phases.
WARNING: Element Mg is contained in Bloedite (which has 0.0 mass),	
but is not in solution or other phases.
WARNING: Element Cl is contained in Carnallite (which has 0.0 mass),	
but is not in solution or other phases.
WARNING: Element K is contained in Carnallite (which has 0.0 mass),	
but is not in solution or other phases.
WARNING: Element Mg is contained in Carnallite (which has 0.0 mass),	
but is not in solution or other phases.
WARNING: Element Mg is contained in Epsomite (which has 0.0 mass),	
but is not in solution or other phases.
WARNING: Element K is contained in Glaserite (which has 0.0 mass),	
but is not in solution or other phases.
WARNING: Element Ca is contained in Glauberite (which has 0.0 mass),	
but is not in solution or other phases.
WARNING: Element Ca is contained in Gypsum (which has 0.0 mass),	
but is not in solution or other phases.
WARNING: Element Cl is contained in Halite (which has 0.0 mass),	
but is not in solution or other phases.
WARNING: Element Mg is contained in Hexahydrite (which has 0.0 mass),	
but is not in solution or other phases.
WARNING: Element Cl is contained in Hydrohalite (which has 0.0 mass),	
but is not in solution or other phases.
WARNING: Element Cl is contained in Kainite (which has 0.0 mass),	
but is not in solution or other phases.
WARNING: Element K is contained in Kainite (which has 0.0 mass),	
but is not in solution or other phases.
WARNING: Element Mg is contained in Kainite (which has 0.0 mass),	
but is not in solution or other phases.
WARNING: Element Mg is contained in Kieserite (which has 0.0 mass),	
but is not in solution or other phases.
WARNING: Element Ca is contained in Labile_Salt (which has 0.0 mass),	
but is not in solution or other phases.
WARNING: Element K is contained in Langbeinite (which has 0.0 mass),	
but is not in solution or other phases.
WARNING: Element Mg is contained in Langbeinite (which has 0.0 mass),	
but is not in solution or other phases.
WARNING: Element K is contained in Leonite (which has 0.0 mass),	
but is not in solution or other phases.
WARNING: Element Mg is contained in Leonite (which has 0.0 mass),	
but is not in solution or other phases.
WARNING: Element Mg is contained in Meridianiite (which has 0.0 mass),	
but is not in solution or other phases.
WARNING: Element Cl is contained in MgCl2:12H2O (which has 0.0 mass),	
but is not in solution or other phases.
WARNING: Element Mg is contained in MgCl2:12H2O (which has 0.0 mass),	
but is not in solution or other phases.
WARNING: Element Cl is contained in MgCl2:8H2O (which has 0.0 mass),	
but is not in solution or other phases.
WARNING: Element Mg is contained in MgCl2:8H2O (which has 0.0 mass),	
but is not in solution or other phases.
WARNING: Element Mg is contained in Pentahydrite (which has 0.0 mass),	
but is not in solution or other phases.
WARNING: Element K is contained in Picromerite (which has 0.0 mass),	
but is not in solution or other phases.
WARNING: Element Mg is contained in Picromerite (which has 0.0 mass),	
but is not in solution or other phases.
WARNING: Element Ca is contained in Polyhalite (which has 0.0 mass),	
but is not in solution or other phases.
WARNING: Element K is contained in Polyhalite (which has 0.0 mass),	
but is not in solution or other phases.
WARNING: Element Mg is contained in Polyhalite (which has 0.0 mass),	
but is not in solution or other phases.
WARNING: Element Mg is contained in Starkeyite (which has 0.0 mass),	
but is not in solution or other phases.
WARNING: Element Cl is contained in Sylvite (which has 0.0 mass),	
but is not in solution or other phases.
WARNING: Element K is contained in Sylvite (which has 0.0 mass),	
but is not in solution or other phases.
WARNING: Element Ca is contained in Syngenite (which has 0.0 mass),	
but is not in solution or other phases.
WARNING: Element K is contained in Syngenite (which has 0.0 mass),	
but is not in solution or other phases.
WARNING: Element Ca is contained in Tachyhydrite (which has 0.0 mass),	
but is not in solution or other phases.
WARNING: Element Cl is contained in Tachyhydrite (which has 0.0 mass),	
but is not in solution or other phases.
WARNING: Element Mg is contained in Tachyhydrite (which has 0.0 mass),	
but is not in solution or other phases.
Using solution 1.	
Using pure phase assemblage 1.	
Using temperature 1.	

-------------------------------Phase assemblage--------------------------------

                                                      Moles in assemblage
Phase               SI  log IAP  log K(T, P)   Initial       Final       Delta

Anhydrite            Element not present.    0.000e+00           0   0.000e+00
Antarcticite         Element not present.    0.000e+00           0   0.000e+00
Arcanite             Element not present.    0.000e+00           0   0.000e+00
Bassanite            Element not present.    0.000e+00           0   0.000e+00
Bischofite           Element not present.    0.000e+00           0   0.000e+00
Bloedite             Element not present.    0.000e+00           0   0.000e+00
Carnallite           Element not present.    0.000e+00           0   0.000e+00
Epsomite             Element not present.    0.000e+00           0   0.000e+00
Glaserite            Element not present.    0.000e+00           0   0.000e+00
Glauberite           Element not present.    0.000e+00           0   0.000e+00
Gypsum               Element not present.    0.000e+00           0   0.000e+00
Halite               Element not present.    0.000e+00           0   0.000e+00
Hexahydrite          Element not present.    0.000e+00           0   0.000e+00
Hydrohalite          Element not present.    0.000e+00           0   0.000e+00
Ice(s)           -0.00    -0.00      0.00    0.000e+00           0   0.000e+00
Kainite              Element not present.    0.000e+00           0   0.000e+00
Kieserite            Element not present.    0.000e+00           0   0.000e+00
Labile_Salt          Element not present.    0.000e+00           0   0.000e+00
Langbeinite          Element not present.    0.000e+00           0   0.000e+00
Leonite              Element not present.    0.000e+00           0   0.000e+00
Meridianiite         Element not present.    0.000e+00           0   0.000e+00
MgCl2:12H2O          Element not present.    0.000e+00           0   0.000e+00
MgCl2:8H2O           Element not present.    0.000e+00           0   0.000e+00
Mirabilite       -3.74    -6.23     -2.49    0.000e+00           0   0.000e+00
Na2SO4:7H2O      -4.65    -6.23     -1.59    0.000e+00           0   0.000e+00
Pentahydrite         Element not present.    0.000e+00           0   0.000e+00
Picromerite          Element not present.    0.000e+00           0   0.000e+00
Polyhalite           Element not present.    0.000e+00           0   0.000e+00
Starkeyite           Element not present.    0.000e+00           0   0.000e+00
Sylvite              Element not present.    0.000e+00           0   0.000e+00
Syngenite            Element not present.    0.000e+00           0   0.000e+00
Tachyhydrite         Element not present.    0.000e+00           0   0.000e+00
Thenardite       -5.91    -6.23     -0.32    0.000e+00           0   0.000e+00

-----------------------------Solution composition------------------------------

	Elements           Molality       Moles

	Na                1.400e-02   1.400e-02
	S                 7.000e-03   7.000e-03

----------------------------Description of solution----------------------------

                                       pH  =   7.000      Charge balance
                                       pe  =   4.000      Adjusted to redox equilibrium
      Specific Conductance (µS/cm,   0°C)  = 779
                          Density (g/cm³)  =   1.00082
                               Volume (L)  =   1.00018
                        Activity of water  =   1.000
                 Ionic strength (mol/kgw)  =   2.100e-02
                       Mass of water (kg)  =   1.000e+00
                 Total alkalinity (eq/kg)  =   1.247e-09
                         Temperature (°C)  =   0.00
                  Electrical balance (eq)  =  -1.242e-09
 Percent error, 100*(Cat-|An|)/(Cat+|An|)  =  -0.00
                               Iterations  =   3
                         Gamma iterations  =   2
                      Osmotic coefficient  =   0.91212
                         Density of water  =   0.99984
                                  Total H  = 1.110186e+02
                                  Total O  = 5.553730e+01

----------------------------Distribution of species----------------------------

                                                    Unscaled  Unscaled
                                Unscaled       Log       Log       Log    mole V
   Species          Molality    Activity  Molality  Activity     Gamma    cm³/mol

   OH-             1.171e-07   9.999e-08    -6.931    -7.000    -0.069     -6.06
   H+              1.159e-07   9.997e-08    -6.936    -7.000    -0.064      0.00
   H2O             5.551e+01   9.997e-01     1.744    -0.000     0.000     18.02
Na            1.400e-02
   Na+             1.400e-02   1.218e-02    -1.854    -1.914    -0.060     -3.35
S(6)          7.000e-03
   SO4-2           7.000e-03   3.947e-03    -2.155    -2.404    -0.249      9.04

------------------------------Saturation indices-------------------------------

  Phase               SI** log IAP   log K(273 K,   1 atm)

  Ice(s)           -0.00     -0.00    0.00  H2O
  Mirabilite       -3.74     -6.23   -2.49  Na2SO4:10H2O
  Na2SO4:7H2O      -4.65     -6.23   -1.59  Na2SO4:7H2O
  Thenardite       -5.91     -6.23   -0.32  Na2SO4

**For a gas, SI = log10(fugacity). Fugacity = pressure * phi / 1 atm.
  For ideal gases, phi = 1.

Reaction step 2.

WARNING: Element Ca is contained in Anhydrite (which has 0.0 mass),	
but is not in solution or other phases.
WARNING: Element Ca is contained in Antarcticite (which has 0.0 mass),	
but is not in solution or other phases.
WARNING: Element Cl is contained in Antarcticite (which has 0.0 mass),	
but is not in solution or other phases.
WARNING: Element K is contained in Arcanite (which has 0.0 mass),	
but is not in solution or other phases.
WARNING: Element Ca is contained in Bassanite (which has 0.0 mass),	
but is not in solution or other phases.
WARNING: Element Cl is contained in Bischofite (which has 0.0 mass),	
but is not in solution or other phases.
WARNING: Element Mg is contained in Bischofite (which has 0.0 mass),	
but is not in solution or other phases.
WARNING: Element Mg is contained in Bloedite (which has 0.0 mass),	
but is not in solution or other phases.
WARNING: Element Cl is contained in Carnallite (which has 0.0 mass),	
but is not in solution or other phases.
WARNING: Element K is contained in Carnallite (which has 0.0 mass),	
but is not in solution or other phases.
WARNING: Element Mg is contained in Carnallite (which has 0.0 mass),	
but is not in solution or other phases.
WARNING: Element Mg is contained in Epsomite (which has 0.0 mass),	
but is not in solution or other phases.
WARNING: Element K is contained in Glaserite (which has 0.0 mass),	
but is not in solution or other phases.
WARNING: Element Ca is contained in Glauberite (which has 0.0 mass),	
but is not in solution or other phases.
WARNING: Element Ca is contained in Gypsum (which has 0.0 mass),	
but is not in solution or other phases.
WARNING: Element Cl is contained in Halite (which has 0.0 mass),	
but is not in solution or other phases.
WARNING: Element Mg is contained in Hexahydrite (which has 0.0 mass),	
but is not in solution or other phases.
WARNING: Element Cl is contained in Hydrohalite (which has 0.0 mass),	
but is not in solution or other phases.
WARNING: Element Cl is contained in Kainite (which has 0.0 mass),	
but is not in solution or other phases.
WARNING: Element K is contained in Kainite (which has 0.0 mass),	
but is not in solution or other phases.
WARNING: Element Mg is contained in Kainite (which has 0.0 mass),	
but is not in solution or other phases.
WARNING: Element Mg is contained in Kieserite (which has 0.0 mass),	
but is not in solution or other phases.
WARNING: Element Ca is contained in Labile_Salt (which has 0.0 mass),	
but is not in solution or other phases.
WARNING: Element K is contained in Langbeinite (which has 0.0 mass),	
but is not in solution or other phases.
WARNING: Element Mg is contained in Langbeinite (which has 0.0 mass),	
but is not in solution or other phases.
WARNING: Element K is contained in Leonite (which has 0.0 mass),	
but is not in solution or other phases.
WARNING: Element Mg is contained in Leonite (which has 0.0 mass),	
but is not in solution or other phases.
WARNING: Element Mg is contained in Meridianiite (which has 0.0 mass),	
but is not in solution or other phases.
WARNING: Element Cl is contained in MgCl2:12H2O (which has 0.0 mass),	
but is not in solution or other phases.
WARNING: Element Mg is contained in MgCl2:12H2O (which has 0.0 mass),	
but is not in solution or other phases.
WARNING: Element Cl is contained in MgCl2:8H2O (which has 0.0 mass),	
but is not in solution or other phases.
WARNING: Element Mg is contained in MgCl2:8H2O (which has 0.0 mass),	
but is not in solution or other phases.
WARNING: Element Mg is contained in Pentahydrite (which has 0.0 mass),	
but is not in solution or other phases.
WARNING: Element K is contained in Picromerite (which has 0.0 mass),	
but is not in solution or other phases.
WARNING: Element Mg is contained in Picromerite (which has 0.0 mass),	
but is not in solution or other phases.
WARNING: Element Ca is contained in Polyhalite (which has 0.0 mass),	
but is not in solution or other phases.
WARNING: Element K is contained in Polyhalite (which has 0.0 mass),	
but is not in solution or other phases.
WARNING: Element Mg is contained in Polyhalite (which has 0.0 mass),	
but is not in solution or other phases.
WARNING: Element Mg is contained in Starkeyite (which has 0.0 mass),	
but is not in solution or other phases.
WARNING: Element Cl is contained in Sylvite (which has 0.0 mass),	
but is not in solution or other phases.
WARNING: Element K is contained in Sylvite (which has 0.0 mass),	
but is not in solution or other phases.
WARNING: Element Ca is contained in Syngenite (which has 0.0 mass),	
but is not in solution or other phases.
WARNING: Element K is contained in Syngenite (which has 0.0 mass),	
but is not in solution or other phases.
WARNING: Element Ca is contained in Tachyhydrite (which has 0.0 mass),	
but is not in solution or other phases.
WARNING: Element Cl is contained in Tachyhydrite (which has 0.0 mass),	
but is not in solution or other phases.
WARNING: Element Mg is contained in Tachyhydrite (which has 0.0 mass),	
but is not in solution or other phases.
Using solution 1.	
Using pure phase assemblage 1.	
Using temperature 1.	

-------------------------------Phase assemblage--------------------------------

                                                      Moles in assemblage
Phase               SI  log IAP  log K(T, P)   Initial       Final       Delta

Anhydrite            Element not present.    0.000e+00           0   0.000e+00
Antarcticite         Element not present.    0.000e+00           0   0.000e+00
Arcanite             Element not present.    0.000e+00           0   0.000e+00
Bassanite            Element not present.    0.000e+00           0   0.000e+00
Bischofite           Element not present.    0.000e+00           0   0.000e+00
Bloedite             Element not present.    0.000e+00           0   0.000e+00
Carnallite           Element not present.    0.000e+00           0   0.000e+00
Epsomite             Element not present.    0.000e+00           0   0.000e+00
Glaserite            Element not present.    0.000e+00           0   0.000e+00
Glauberite           Element not present.    0.000e+00           0   0.000e+00
Gypsum               Element not present.    0.000e+00           0   0.000e+00
Halite               Element not present.    0.000e+00           0   0.000e+00
Hexahydrite          Element not present.    0.000e+00           0   0.000e+00
Hydrohalite          Element not present.    0.000e+00           0   0.000e+00
Ice(s)           -0.00    -0.00     -0.00    0.000e+00           0   0.000e+00
Kainite              Element not present.    0.000e+00           0   0.000e+00
Kieserite            Element not present.    0.000e+00           0   0.000e+00
Labile_Salt          Element not present.    0.000e+00           0   0.000e+00
Langbeinite          Element not present.    0.000e+00           0   0.000e+00
Leonite              Element not present.    0.000e+00           0   0.000e+00
Meridianiite         Element not present.    0.000e+00           0   0.000e+00
MgCl2:12H2O          Element not present.    0.000e+00           0   0.000e+00
MgCl2:8H2O           Element not present.    0.000e+00           0   0.000e+00
Mirabilite       -3.74    -6.23     -2.49    0.000e+00           0   0.000e+00
Na2SO4:7H2O      -4.65    -6.23     -1.59    0.000e+00           0   0.000e+00
Pentahydrite         Element not present.    0.000e+00           0   0.000e+00
Picromerite          Element not present.    0.000e+00           0   0.000e+00
Polyhalite           Element not present.    0.000e+00           0   0.000e+00
Starkeyite           Element not present.    0.000e+00           0   0.000e+00
Sylvite              Element not present.    0.000e+00           0   0.000e+00
Syngenite            Element not present.    0.000e+00           0   0.000e+00
Tachyhydrite         Element not present.    0.000e+00           0   0.000e+00
Thenardite       -5.91    -6.23     -0.32    0.000e+00           0   0.000e+00

-----------------------------Solution composition------------------------------

	Elements           Molality       Moles

	Na                1.400e-02   1.400e-02
	S                 7.000e-03   7.000e-03

----------------------------Description of solution----------------------------

                                       pH  =   7.000      Charge balance
                                       pe  =   4.000      Adjusted to redox equilibrium
      Specific Conductance (µS/cm,  -0°C)  = 779
                          Density (g/cm³)  =   1.00082
                               Volume (L)  =   1.00018
                        Activity of water  =   1.000
                 Ionic strength (mol/kgw)  =   2.100e-02
                       Mass of water (kg)  =   1.000e+00
                 Total alkalinity (eq/kg)  =   1.247e-09
                         Temperature (°C)  =  -0.01
                  Electrical balance (eq)  =  -1.242e-09
 Percent error, 100*(Cat-|An|)/(Cat+|An|)  =  -0.00
                               Iterations  =   3
                         Gamma iterations  =   2
                      Osmotic coefficient  =   0.91212
                         Density of water  =   0.99984
                                  Total H  = 1.110186e+02
                                  Total O  = 5.553730e+01

----------------------------Distribution of species----------------------------

                                                    Unscaled  Unscaled
                                Unscaled       Log       Log       Log    mole V
   Species          Molality    Activity  Molality  Activity     Gamma    cm³/mol

   OH-             1.171e-07   9.999e-08    -6.931    -7.000    -0.069     -6.06
   H+              1.159e-07   9.997e-08    -6.936    -7.000    -0.064      0.00
   H2O             5.551e+01   9.997e-01     1.744    -0.000     0.000     18.02
Na            1.400e-02
   Na+             1.400e-02   1.218e-02    -1.854    -1.914    -0.060     -3.36
S(6)          7.000e-03
   SO4-2           7.000e-03   3.947e-03    -2.155    -2.404    -0.249      9.03

------------------------------Saturation indices-------------------------------

  Phase               SI** log IAP   log K(273 K,   1 atm)

  Ice(s)           -0.00     -0.00   -0.00  H2O
  Mirabilite       -3.74     -6.23   -2.49  Na2SO4:10H2O
  Na2SO4:7H2O      -4.65     -6.23   -1.59  Na2SO4:7H2O
  Thenardite       -5.91     -6.23   -0.32  Na2SO4

**For a gas, SI = log10(fugacity). Fugacity = pressure * phi / 1 atm.
  For ideal gases, phi = 1.

Reaction step 3.

WARNING: Element Ca is contained in Anhydrite (which has 0.0 mass),	
but is not in solution or other phases.
WARNING: Element Ca is contained in Antarcticite (which has 0.0 mass),	
but is not in solution or other phases.
WARNING: Element Cl is contained in Antarcticite (which has 0.0 mass),	
but is not in solution or other phases.
WARNING: Element K is contained in Arcanite (which has 0.0 mass),	
but is not in solution or other phases.
WARNING: Element Ca is contained in Bassanite (which has 0.0 mass),	
but is not in solution or other phases.
WARNING: Element Cl is contained in Bischofite (which has 0.0 mass),	
but is not in solution or other phases.
WARNING: Element Mg is contained in Bischofite (which has 0.0 mass),	
but is not in solution or other phases.
WARNING: Element Mg is contained in Bloedite (which has 0.0 mass),	
but is not in solution or other phases.
Using solution 1.	
Using pure phase assemblage 1.	
Using temperature 1.	

-------------------------------Phase assemblage--------------------------------

                                                      Moles in assemblage
Phase               SI  log IAP  log K(T, P)   Initial       Final       Delta

Anhydrite            Element not present.    0.000e+00           0   0.000e+00
Antarcticite         Element not present.    0.000e+00           0   0.000e+00
Arcanite             Element not present.    0.000e+00           0   0.000e+00
Bassanite            Element not present.    0.000e+00           0   0.000e+00
Bischofite           Element not present.    0.000e+00           0   0.000e+00
Bloedite             Element not present.    0.000e+00           0   0.000e+00
Carnallite           Element not present.    0.000e+00           0   0.000e+00
Epsomite             Element not present.    0.000e+00           0   0.000e+00
Glaserite            Element not present.    0.000e+00           0   0.000e+00
Glauberite           Element not present.    0.000e+00           0   0.000e+00
Gypsum               Element not present.    0.000e+00           0   0.000e+00
Halite               Element not present.    0.000e+00           0   0.000e+00
Hexahydrite          Element not present.    0.000e+00           0   0.000e+00
Hydrohalite          Element not present.    0.000e+00           0   0.000e+00
Ice(s)           -0.00    -0.00     -0.00    0.000e+00           0   0.000e+00
Kainite              Element not present.    0.000e+00           0   0.000e+00
Kieserite            Element not present.    0.000e+00           0   0.000e+00
Labile_Salt          Element not present.    0.000e+00           0   0.000e+00
Langbeinite          Element not present.    0.000e+00           0   0.000e+00
Leonite              Element not present.    0.000e+00           0   0.000e+00
Meridianiite         Element not present.    0.000e+00           0   0.000e+00
MgCl2:12H2O          Element not present.    0.000e+00           0   0.000e+00
MgCl2:8H2O           Element not present.    0.000e+00           0   0.000e+00
Mirabilite       -3.74    -6.23     -2.49    0.000e+00           0   0.000e+00
Na2SO4:7H2O      -4.65    -6.23     -1.59    0.000e+00           0   0.000e+00
Pentahydrite         Element not present.    0.000e+00           0   0.000e+00
Picromerite          Element not present.    0.000e+00           0   0.000e+00
Polyhalite           Element not present.    0.000e+00           0   0.000e+00
Starkeyite           Element not present.    0.000e+00           0   0.000e+00
Sylvite              Element not present.    0.000e+00           0   0.000e+00
Syngenite            Element not present.    0.000e+00           0   0.000e+00
Tachyhydrite         Element not present.    0.000e+00           0   0.000e+00
Thenardite       -5.91    -6.23     -0.32    0.000e+00           0   0.000e+00

-----------------------------Solution composition------------------------------

	Elements           Molality       Moles

	Na                1.400e-02   1.400e-02
	S                 7.000e-03   7.000e-03

----------------------------Description of solution----------------------------

                                       pH  =   7.000      Charge balance
                                       pe  =   4.000      Adjusted to redox equilibrium
      Specific Conductance (µS/cm,  -0°C)  = 778
                          Density (g/cm³)  =   1.00082
                               Volume (L)  =   1.00018
                        Activity of water  =   1.000
                 Ionic strength (mol/kgw)  =   2.100e-02
                       Mass of water (kg)  =   1.000e+00
                 Total alkalinity (eq/kg)  =   1.247e-09
                         Temperature (°C)  =  -0.02
                  Electrical balance (eq)  =  -1.242e-09
 Percent error, 100*(Cat-|An|)/(Cat+|An|)  =  -0.00
                               Iterations  =   3
                         Gamma iterations  =   2
                      Osmotic coefficient  =   0.91212
                         Density of water  =   0.99984
                                  Total H  = 1.110186e+02
                                  Total O  = 5.553730e+01

----------------------------Distribution of species----------------------------

                                                    Unscaled  Unscaled
                                Unscaled       Log       Log       Log    mole V
   Species          Molality    Activity  Molality  Activity     Gamma    cm³/mol

   OH-             1.171e-07   9.999e-08    -6.931    -7.000    -0.069     -6.06
   H+              1.159e-07   9.997e-08    -6.936    -7.000    -0.064      0.00
   H2O             5.551e+01   9.997e-01     1.744    -0.000     0.000     18.02
Na            1.400e-02
   Na+             1.400e-02   1.218e-02    -1.854    -1.914    -0.060     -3.36
S(6)          7.000e-03
   SO4-2           7.000e-03   3.948e-03    -2.155    -2.404    -0.249      9.03

------------------------------Saturation indices-------------------------------

  Phase               SI** log IAP   log K(273 K,   1 atm)

  Ice(s)           -0.00     -0.00   -0.00  H2O
  Mirabilite       -3.74     -6.23   -2.49  Na2SO4:10H2O
  Na2SO4:7H2O      -4.65     -6.23   -1.59  Na2SO4:7H2O
  Thenardite       -5.91     -6.23   -0.32  Na2SO4

**For a gas, SI = log10(fugacity). Fugacity = pressure * phi / 1 atm.
  For ideal gases, phi = 1.

Reaction step 4.

Using solution 1.	
Using pure phase assemblage 1.	
Using temperature 1.	

-------------------------------Phase assemblage--------------------------------

                                                      Moles in assemblage
Phase               SI  log IAP  log K(T, P)   Initial       Final       Delta

Anhydrite            Element not present.    0.000e+00           0   0.000e+00
Antarcticite         Element not present.    0.000e+00           0   0.000e+00
Arcanite             Element not present.    0.000e+00           0   0.000e+00
Bassanite            Element not present.    0.000e+00           0   0.000e+00
Bischofite           Element not present.    0.000e+00           0   0.000e+00
Bloedite             Element not present.    0.000e+00           0   0.000e+00
Carnallite           Element not present.    0.000e+00           0   0.000e+00
Epsomite             Element not present.    0.000e+00           0   0.000e+00
Glaserite            Element not present.    0.000e+00           0   0.000e+00
Glauberite           Element not present.    0.000e+00           0   0.000e+00
Gypsum               Element not present.    0.000e+00           0   0.000e+00
Halite               Element not present.    0.000e+00           0   0.000e+00
Hexahydrite          Element not present.    0.000e+00           0   0.000e+00
Hydrohalite          Element not present.    0.000e+00           0   0.000e+00
Ice(s)           -0.00    -0.00     -0.00    0.000e+00           0   0.000e+00
Kainite              Element not present.    0.000e+00           0   0.000e+00
Kieserite            Element not present.    0.000e+00           0   0.000e+00
Labile_Salt          Element not present.    0.000e+00           0   0.000e+00
Langbeinite          Element not present.    0.000e+00           0   0.000e+00
Leonite              Element not present.    0.000e+00           0   0.000e+00
Meridianiite         Element not present.    0.000e+00           0   0.000e+00
MgCl2:12H2O          Element not present.    0.000e+00           0   0.000e+00
MgCl2:8H2O           Element not present.    0.000e+00           0   0.000e+00
Mirabilite       -3.74    -6.23     -2.49    0.000e+00           0   0.000e+00
Na2SO4:7H2O      -4.65    -6.23     -1.59    0.000e+00           0   0.000e+00
Pentahydrite         Element not present.    0.000e+00           0   0.000e+00
Picromerite          Element not present.    0.000e+00           0   0.000e+00
Polyhalite           Element not present.    0.000e+00           0   0.000e+00
Starkeyite           Element not present.    0.000e+00           0   0.000e+00
Sylvite              Element not present.    0.000e+00           0   0.000e+00
Syngenite            Element not present.    0.000e+00           0   0.000e+00
Tachyhydrite         Element not present.    0.000e+00           0   0.000e+00
Thenardite       -5.91    -6.23     -0.32    0.000e+00           0   0.000e+00

-----------------------------Solution composition------------------------------

	Elements           Molality       Moles

	Na                1.400e-02   1.400e-02
	S                 7.000e-03   7.000e-03

----------------------------Description of solution----------------------------

                                       pH  =   7.000      Charge balance
                                       pe  =   4.000      Adjusted to redox equilibrium
      Specific Conductance (µS/cm,  -0°C)  = 778
                          Density (g/cm³)  =   1.00082
                               Volume (L)  =   1.00018
                        Activity of water  =   1.000
                 Ionic strength (mol/kgw)  =   2.100e-02
                       Mass of water (kg)  =   1.000e+00
                 Total alkalinity (eq/kg)  =   1.247e-09
                         Temperature (°C)  =  -0.03
                  Electrical balance (eq)  =  -1.242e-09
 Percent error, 100*(Cat-|An|)/(Cat+|An|)  =  -0.00
                               Iterations  =   3
                         Gamma iterations  =   2
                      Osmotic coefficient  =   0.91212
                         Density of water  =   0.99984
                                  Total H  = 1.110186e+02
                                  Total O  = 5.553730e+01

----------------------------Distribution of species----------------------------

                                                    Unscaled  Unscaled
                                Unscaled       Log       Log       Log    mole V
   Species          Molality    Activity  Molality  Activity     Gamma    cm³/mol

   OH-             1.171e-07   9.999e-08    -6.931    -7.000    -0.069     -6.07
   H+              1.159e-07   9.997e-08    -6.936    -7.000    -0.064      0.00
   H2O             5.551e+01   9.997e-01     1.744    -0.000     0.000     18.02
Na            1.400e-02
   Na+             1.400e-02   1.218e-02    -1.854    -1.914    -0.060     -3.36
S(6)          7.000e-03
   SO4-2           7.000e-03   3.948e-03    -2.155    -2.404    -0.249      9.02

------------------------------Saturation indices-------------------------------

  Phase               SI** log IAP   log K(273 K,   1 atm)

  Ice(s)           -0.00     -0.00   -0.00  H2O
  Mirabilite       -3.74     -6.23   -2.49  Na2SO4:10H2O
  Na2SO4:7H2O      -4.65     -6.23   -1.59  Na2SO4:7H2O
  Thenardite       -5.91     -6.23   -0.32  Na2SO4

**For a gas, SI = log10(fugacity). Fugacity = pressure * phi / 1 atm.
  For ideal gases, phi = 1.

Reaction step 5.

Using solution 1.	
Using pure phase assemblage 1.	
Using temperature 1.	

-------------------------------Phase assemblage--------------------------------

                                                      Moles in assemblage
Phase               SI  log IAP  log K(T, P)   Initial       Final       Delta

Anhydrite            Element not present.    0.000e+00           0   0.000e+00
Antarcticite         Element not present.    0.000e+00           0   0.000e+00
Arcanite             Element not present.    0.000e+00           0   0.000e+00
Bassanite            Element not present.    0.000e+00           0   0.000e+00
Bischofite           Element not present.    0.000e+00           0   0.000e+00
Bloedite             Element not present.    0.000e+00           0   0.000e+00
Carnallite           Element not present.    0.000e+00           0   0.000e+00
Epsomite             Element not present.    0.000e+00           0   0.000e+00
Glaserite            Element not present.    0.000e+00           0   0.000e+00
Glauberite           Element not present.    0.000e+00           0   0.000e+00
Gypsum               Element not present.    0.000e+00           0   0.000e+00
Halite               Element not present.    0.000e+00           0   0.000e+00
Hexahydrite          Element not present.    0.000e+00           0   0.000e+00
Hydrohalite          Element not present.    0.000e+00           0   0.000e+00
Ice(s)            0.00    -0.00     -0.00    0.000e+00   6.311e+00   6.311e+00
Kainite              Element not present.    0.000e+00           0   0.000e+00
Kieserite            Element not present.    0.000e+00           0   0.000e+00
Labile_Salt          Element not present.    0.000e+00           0   0.000e+00
Langbeinite          Element not present.    0.000e+00           0   0.000e+00
Leonite              Element not present.    0.000e+00           0   0.000e+00
Meridianiite         Element not present.    0.000e+00           0   0.000e+00
MgCl2:12H2O          Element not present.    0.000e+00           0   0.000e+00
MgCl2:8H2O           Element not present.    0.000e+00           0   0.000e+00
Mirabilite       -3.60    -6.10     -2.49    0.000e+00           0   0.000e+00
Na2SO4:7H2O      -4.51    -6.10     -1.59    0.000e+00           0   0.000e+00
Pentahydrite         Element not present.    0.000e+00           0   0.000e+00
Picromerite          Element not present.    0.000e+00           0   0.000e+00
Polyhalite           Element not present.    0.000e+00           0   0.000e+00
Starkeyite           Element not present.    0.000e+00           0   0.000e+00
Sylvite              Element not present.    0.000e+00           0   0.000e+00
Syngenite            Element not present.    0.000e+00           0   0.000e+00
Tachyhydrite         Element not present.    0.000e+00           0   0.000e+00
Thenardite       -5.77    -6.09     -0.32    0.000e+00           0   0.000e+00

-----------------------------Solution composition------------------------------

	Elements           Molality       Moles

	Na                1.580e-02   1.400e-02
	S                 7.898e-03   7.000e-03

----------------------------Description of solution----------------------------

                                       pH  =   7.000      Charge balance
                                       pe  =   4.000      Adjusted to redox equilibrium
      Specific Conductance (µS/cm,  -0°C)  = 871
                          Density (g/cm³)  =   1.00094
                               Volume (L)  =   0.88647
                        Activity of water  =   1.000
                 Ionic strength (mol/kgw)  =   2.369e-02
                       Mass of water (kg)  =   8.863e-01
                 Total alkalinity (eq/kg)  =   1.407e-09
                         Temperature (°C)  =  -0.04
                  Electrical balance (eq)  =  -1.247e-09
 Percent error, 100*(Cat-|An|)/(Cat+|An|)  =  -0.00
                               Iterations  =   5 (1409 overall)
                         Gamma iterations  =   1
                      Osmotic coefficient  =   0.90779
                         Density of water  =   0.99984
                                  Total H  = 9.839728e+01
                                  Total O  = 4.922664e+01

----------------------------Distribution of species----------------------------

                                                    Unscaled  Unscaled
                                Unscaled       Log       Log       Log    mole V
   Species          Molality    Activity  Molality  Activity     Gamma    cm³/mol

   OH-             1.182e-07   1.000e-07    -6.927    -7.000    -0.073     -6.06
   H+              1.168e-07   9.995e-08    -6.933    -7.000    -0.068      0.00
   H2O             5.551e+01   9.996e-01     1.744    -0.000     0.000     18.02
Na            1.580e-02
   Na+             1.580e-02   1.365e-02    -1.801    -1.865    -0.063     -3.34
S(6)          7.898e-03
   SO4-2           7.898e-03   4.318e-03    -2.102    -2.365    -0.262      9.08

------------------------------Saturation indices-------------------------------

  Phase               SI** log IAP   log K(273 K,   1 atm)

  Ice(s)            0.00     -0.00   -0.00  H2O
  Mirabilite       -3.60     -6.10   -2.49  Na2SO4:10H2O
  Na2SO4:7H2O      -4.51     -6.10   -1.59  Na2SO4:7H2O
  Thenardite       -5.77     -6.09   -0.32  Na2SO4

**For a gas, SI = log10(fugacity). Fugacity = pressure * phi / 1 atm.
  For ideal gases, phi = 1.

Reaction step 6.

Using solution 1.	
Using pure phase assemblage 1.	
Using temperature 1.	

-------------------------------Phase assemblage--------------------------------

                                                      Moles in assemblage
Phase               SI  log IAP  log K(T, P)   Initial       Final       Delta

Anhydrite            Element not present.    0.000e+00           0   0.000e+00
Antarcticite         Element not present.    0.000e+00           0   0.000e+00
Arcanite             Element not present.    0.000e+00           0   0.000e+00
Bassanite            Element not present.    0.000e+00           0   0.000e+00
Bischofite           Element not present.    0.000e+00           0   0.000e+00
Bloedite             Element not present.    0.000e+00           0   0.000e+00
Carnallite           Element not present.    0.000e+00           0   0.000e+00
Epsomite             Element not present.    0.000e+00           0   0.000e+00
Glaserite            Element not present.    0.000e+00           0   0.000e+00
Glauberite           Element not present.    0.000e+00           0   0.000e+00
Gypsum               Element not present.    0.000e+00           0   0.000e+00
Halite               Element not present.    0.000e+00           0   0.000e+00
Hexahydrite          Element not present.    0.000e+00           0   0.000e+00
Hydrohalite          Element not present.    0.000e+00           0   0.000e+00
Ice(s)            0.00    -0.00     -0.00    0.000e+00   1.653e+01   1.653e+01
Kainite              Element not present.    0.000e+00           0   0.000e+00
Kieserite            Element not present.    0.000e+00           0   0.000e+00
Labile_Salt          Element not present.    0.000e+00           0   0.000e+00
Langbeinite          Element not present.    0.000e+00           0   0.000e+00
Leonite              Element not present.    0.000e+00           0   0.000e+00
Meridianiite         Element not present.    0.000e+00           0   0.000e+00
MgCl2:12H2O          Element not present.    0.000e+00           0   0.000e+00
MgCl2:8H2O           Element not present.    0.000e+00           0   0.000e+00
Mirabilite       -3.34    -5.83     -2.49    0.000e+00           0   0.000e+00
Na2SO4:7H2O      -4.24    -5.83     -1.59    0.000e+00           0   0.000e+00
Pentahydrite         Element not present.    0.000e+00           0   0.000e+00
Picromerite          Element not present.    0.000e+00           0   0.000e+00
Polyhalite           Element not present.    0.000e+00           0   0.000e+00
Starkeyite           Element not present.    0.000e+00           0   0.000e+00
Sylvite              Element not present.    0.000e+00           0   0.000e+00
Syngenite            Element not present.    0.000e+00           0   0.000e+00
Tachyhydrite         Element not present.    0.000e+00           0   0.000e+00
Thenardite       -5.51    -5.83     -0.32    0.000e+00           0   0.000e+00

-----------------------------Solution composition------------------------------

	Elements           Molality       Moles

	Na                1.994e-02   1.400e-02
	S                 9.969e-03   7.000e-03

----------------------------Description of solution----------------------------

                                       pH  =   7.001      Charge balance
                                       pe  =   4.000      Adjusted to redox equilibrium
      Specific Conductance (µS/cm,  -0°C)  = 1082
                          Density (g/cm³)  =   1.00123
                               Volume (L)  =   0.70228
                        Activity of water  =   1.000
                 Ionic strength (mol/kgw)  =   2.991e-02
                       Mass of water (kg)  =   7.021e-01
                 Total alkalinity (eq/kg)  =   1.776e-09
                         Temperature (°C)  =  -0.05
                  Electrical balance (eq)  =  -1.247e-09
 Percent error, 100*(Cat-|An|)/(Cat+|An|)  =  -0.00
                               Iterations  =   5 (1409 overall)
                         Gamma iterations  =   1
                      Osmotic coefficient  =   0.89898
                         Density of water  =   0.99984
                                  Total H  = 7.795116e+01
                                  Total O  = 3.900358e+01

----------------------------Distribution of species----------------------------

                                                    Unscaled  Unscaled
                                Unscaled       Log       Log       Log    mole V
   Species          Molality    Activity  Molality  Activity     Gamma    cm³/mol

   OH-             1.205e-07   1.001e-07    -6.919    -7.000    -0.081     -6.04
   H+              1.187e-07   9.988e-08    -6.925    -7.001    -0.075      0.00
   H2O             5.551e+01   9.995e-01     1.744    -0.000     0.000     18.02
Na            1.994e-02
   Na+             1.994e-02   1.697e-02    -1.700    -1.770    -0.070     -3.31
S(6)          9.969e-03
   SO4-2           9.969e-03   5.112e-03    -2.001    -2.291    -0.290      9.19

------------------------------Saturation indices-------------------------------

  Phase               SI** log IAP   log K(273 K,   1 atm)

  Ice(s)            0.00     -0.00   -0.00  H2O
  Mirabilite       -3.34     -5.83   -2.49  Na2SO4:10H2O
  Na2SO4:7H2O      -4.24     -5.83   -1.59  Na2SO4:7H2O
  Thenardite       -5.51     -5.83   -0.32  Na2SO4

**For a gas, SI = log10(fugacity). Fugacity = pressure * phi / 1 atm.
  For ideal gases, phi = 1.

Reaction step 7.

Using solution 1.	
Using pure phase assemblage 1.	
Using temperature 1.	

-------------------------------Phase assemblage--------------------------------

                                                      Moles in assemblage
Phase               SI  log IAP  log K(T, P)   Initial       Final       Delta

Anhydrite            Element not present.    0.000e+00           0   0.000e+00
Antarcticite         Element not present.    0.000e+00           0   0.000e+00
Arcanite             Element not present.    0.000e+00           0   0.000e+00
Bassanite            Element not present.    0.000e+00           0   0.000e+00
Bischofite           Element not present.    0.000e+00           0   0.000e+00
Bloedite             Element not present.    0.000e+00           0   0.000e+00
Carnallite           Element not present.    0.000e+00           0   0.000e+00
Epsomite             Element not present.    0.000e+00           0   0.000e+00
Glaserite            Element not present.    0.000e+00           0   0.000e+00
Glauberite           Element not present.    0.000e+00           0   0.000e+00
Gypsum               Element not present.    0.000e+00           0   0.000e+00
Halite               Element not present.    0.000e+00           0   0.000e+00
Hexahydrite          Element not present.    0.000e+00           0   0.000e+00
Hydrohalite          Element not present.    0.000e+00           0   0.000e+00
Ice(s)            0.00    -0.00     -0.00    0.000e+00   2.331e+01   2.331e+01
Kainite              Element not present.    0.000e+00           0   0.000e+00
Kieserite            Element not present.    0.000e+00           0   0.000e+00
Labile_Salt          Element not present.    0.000e+00           0   0.000e+00
Langbeinite          Element not present.    0.000e+00           0   0.000e+00
Leonite              Element not present.    0.000e+00           0   0.000e+00
Meridianiite         Element not present.    0.000e+00           0   0.000e+00
MgCl2:12H2O          Element not present.    0.000e+00           0   0.000e+00
MgCl2:8H2O           Element not present.    0.000e+00           0   0.000e+00
Mirabilite       -3.13    -5.62     -2.49    0.000e+00           0   0.000e+00
Na2SO4:7H2O      -4.03    -5.62     -1.59    0.000e+00           0   0.000e+00
Pentahydrite         Element not present.    0.000e+00           0   0.000e+00
Picromerite          Element not present.    0.000e+00           0   0.000e+00
Polyhalite           Element not present.    0.000e+00           0   0.000e+00
Starkeyite           Element not present.    0.000e+00           0   0.000e+00
Sylvite              Element not present.    0.000e+00           0   0.000e+00
Syngenite            Element not present.    0.000e+00           0   0.000e+00
Tachyhydrite         Element not present.    0.000e+00           0   0.000e+00
Thenardite       -5.30    -5.62     -0.32    0.000e+00           0   0.000e+00

-----------------------------Solution composition------------------------------

	Elements           Molality       Moles

	Na                2.413e-02   1.400e-02
	S                 1.207e-02   7.000e-03

----------------------------Description of solution----------------------------

                                       pH  =   7.001      Charge balance
                                       pe  =   4.000      Adjusted to redox equilibrium
      Specific Conductance (µS/cm,  -0°C)  = 1291
                          Density (g/cm³)  =   1.00152
                               Volume (L)  =   0.58024
                        Activity of water  =   0.999
                 Ionic strength (mol/kgw)  =   3.620e-02
                       Mass of water (kg)  =   5.801e-01
                 Total alkalinity (eq/kg)  =   2.150e-09
                         Temperature (°C)  =  -0.06
                  Electrical balance (eq)  =  -1.247e-09
 Percent error, 100*(Cat-|An|)/(Cat+|An|)  =  -0.00
                               Iterations  =   6 (1410 overall)
                         Gamma iterations  =   1
                      Osmotic coefficient  =   0.89133
                         Density of water  =   0.99984
                                  Total H  = 6.440461e+01
                                  Total O  = 3.223031e+01

----------------------------Distribution of species----------------------------

                                                    Unscaled  Unscaled
                                Unscaled       Log       Log       Log    mole V
   Species          Molality    Activity  Molality  Activity     Gamma    cm³/mol

   OH-             1.226e-07   1.001e-07    -6.911    -6.999    -0.088     -6.02
   H+              1.205e-07   9.982e-08    -6.919    -7.001    -0.082      0.00
   H2O             5.551e+01   9.994e-01     1.744    -0.000     0.000     18.02
Na            2.413e-02
   Na+             2.413e-02   2.027e-02    -1.617    -1.693    -0.076     -3.29
S(6)          1.207e-02
   SO4-2           1.207e-02   5.846e-03    -1.918    -2.233    -0.315      9.29

------------------------------Saturation indices-------------------------------

  Phase               SI** log IAP   log K(273 K,   1 atm)

  Ice(s)            0.00     -0.00   -0.00  H2O
  Mirabilite       -3.13     -5.62   -2.49  Na2SO4:10H2O
  Na2SO4:7H2O      -4.03     -5.62   -1.59  Na2SO4:7H2O
  Thenardite       -5.30     -5.62   -0.32  Na2SO4

**For a gas, SI = log10(fugacity). Fugacity = pressure * phi / 1 atm.
  For ideal gases, phi = 1.

Reaction step 8.

Using solution 1.	
Using pure phase assemblage 1.	
Using temperature 1.	

-------------------------------Phase assemblage--------------------------------

                                                      Moles in assemblage
Phase               SI  log IAP  log K(T, P)   Initial       Final       Delta

Anhydrite            Element not present.    0.000e+00           0   0.000e+00
Antarcticite         Element not present.    0.000e+00           0   0.000e+00
Arcanite             Element not present.    0.000e+00           0   0.000e+00
Bassanite            Element not present.    0.000e+00           0   0.000e+00
Bischofite           Element not present.    0.000e+00           0   0.000e+00
Bloedite             Element not present.    0.000e+00           0   0.000e+00
Carnallite           Element not present.    0.000e+00           0   0.000e+00
Epsomite             Element not present.    0.000e+00           0   0.000e+00
Glaserite            Element not present.    0.000e+00           0   0.000e+00
Glauberite           Element not present.    0.000e+00           0   0.000e+00
Gypsum               Element not present.    0.000e+00           0   0.000e+00
Halite               Element not present.    0.000e+00           0   0.000e+00
Hexahydrite          Element not present.    0.000e+00           0   0.000e+00
Hydrohalite          Element not present.    0.000e+00           0   0.000e+00
Ice(s)            0.00    -0.00     -0.00    0.000e+00   2.812e+01   2.812e+01
Kainite              Element not present.    0.000e+00           0   0.000e+00
Kieserite            Element not present.    0.000e+00           0   0.000e+00
Labile_Salt          Element not present.    0.000e+00           0   0.000e+00
Langbeinite          Element not present.    0.000e+00           0   0.000e+00
Leonite              Element not present.    0.000e+00           0   0.000e+00
Meridianiite         Element not present.    0.000e+00           0   0.000e+00
MgCl2:12H2O          Element not present.    0.000e+00           0   0.000e+00
MgCl2:8H2O           Element not present.    0.000e+00           0   0.000e+00
Mirabilite       -2.95    -5.44     -2.50    0.000e+00           0   0.000e+00
Na2SO4:7H2O      -3.85    -5.44     -1.59    0.000e+00           0   0.000e+00
Pentahydrite         Element not present.    0.000e+00           0   0.000e+00
Picromerite          Element not present.    0.000e+00           0   0.000e+00
Polyhalite           Element not present.    0.000e+00           0   0.000e+00
Starkeyite           Element not present.    0.000e+00           0   0.000e+00
Sylvite              Element not present.    0.000e+00           0   0.000e+00
Syngenite            Element not present.    0.000e+00           0   0.000e+00
Tachyhydrite         Element not present.    0.000e+00           0   0.000e+00
Thenardite       -5.12    -5.44     -0.32    0.000e+00           0   0.000e+00

-----------------------------Solution composition------------------------------

	Elements           Molality       Moles

	Na                2.837e-02   1.400e-02
	S                 1.419e-02   7.000e-03

----------------------------Description of solution----------------------------

                                       pH  =   7.001      Charge balance
                                       pe  =   4.000      Adjusted to redox equilibrium
      Specific Conductance (µS/cm,  -0°C)  = 1498
                          Density (g/cm³)  =   1.00181
                               Volume (L)  =   0.49355
                        Activity of water  =   0.999
                 Ionic strength (mol/kgw)  =   4.256e-02
                       Mass of water (kg)  =   4.935e-01
                 Total alkalinity (eq/kg)  =   2.528e-09
                         Temperature (°C)  =  -0.07
                  Electrical balance (eq)  =  -1.247e-09
 Percent error, 100*(Cat-|An|)/(Cat+|An|)  =  -0.00
                               Iterations  =   7 (1411 overall)
                         Gamma iterations  =   1
                      Osmotic coefficient  =   0.88454
                         Density of water  =   0.99984
                                  Total H  = 5.478218e+01
                                  Total O  = 2.741909e+01

----------------------------Distribution of species----------------------------

                                                    Unscaled  Unscaled
                                Unscaled       Log       Log       Log    mole V
   Species          Molality    Activity  Molality  Activity     Gamma    cm³/mol

   OH-             1.246e-07   1.002e-07    -6.904    -6.999    -0.095     -6.00
   H+              1.221e-07   9.975e-08    -6.913    -7.001    -0.088      0.00
   H2O             5.551e+01   9.993e-01     1.744    -0.000     0.000     18.02
Na            2.837e-02
   Na+             2.837e-02   2.356e-02    -1.547    -1.628    -0.081     -3.26
S(6)          1.419e-02
   SO4-2           1.419e-02   6.530e-03    -1.848    -2.185    -0.337      9.39

------------------------------Saturation indices-------------------------------

  Phase               SI** log IAP   log K(273 K,   1 atm)

  Ice(s)            0.00     -0.00   -0.00  H2O
  Mirabilite       -2.95     -5.44   -2.50  Na2SO4:10H2O
  Na2SO4:7H2O      -3.85     -5.44   -1.59  Na2SO4:7H2O
  Thenardite       -5.12     -5.44   -0.32  Na2SO4

**For a gas, SI = log10(fugacity). Fugacity = pressure * phi / 1 atm.
  For ideal gases, phi = 1.

Reaction step 9.

Using solution 1.	
Using pure phase assemblage 1.	
Using temperature 1.	

-------------------------------Phase assemblage--------------------------------

                                                      Moles in assemblage
Phase               SI  log IAP  log K(T, P)   Initial       Final       Delta

Anhydrite            Element not present.    0.000e+00           0   0.000e+00
Antarcticite         Element not present.    0.000e+00           0   0.000e+00
Arcanite             Element not present.    0.000e+00           0   0.000e+00
Bassanite            Element not present.    0.000e+00           0   0.000e+00
Bischofite           Element not present.    0.000e+00           0   0.000e+00
Bloedite             Element not present.    0.000e+00           0   0.000e+00
Carnallite           Element not present.    0.000e+00           0   0.000e+00
Epsomite             Element not present.    0.000e+00           0   0.000e+00
Glaserite            Element not present.    0.000e+00           0   0.000e+00
Glauberite           Element not present.    0.000e+00           0   0.000e+00
Gypsum               Element not present.    0.000e+00           0   0.000e+00
Halite               Element not present.    0.000e+00           0   0.000e+00
Hexahydrite          Element not present.    0.000e+00           0   0.000e+00
Hydrohalite          Element not present.    0.000e+00           0   0.000e+00
Ice(s)            0.00    -0.00     -0.00    0.000e+00   3.171e+01   3.171e+01
Kainite              Element not present.    0.000e+00           0   0.000e+00
Kieserite            Element not present.    0.000e+00           0   0.000e+00
Labile_Salt          Element not present.    0.000e+00           0   0.000e+00
Langbeinite          Element not present.    0.000e+00           0   0.000e+00
Leonite              Element not present.    0.000e+00           0   0.000e+00
Meridianiite         Element not present.    0.000e+00           0   0.000e+00
MgCl2:12H2O          Element not present.    0.000e+00           0   0.000e+00
MgCl2:8H2O           Element not present.    0.000e+00           0   0.000e+00
Mirabilite       -2.80    -5.29     -2.50    0.000e+00           0   0.000e+00
Na2SO4:7H2O      -3.70    -5.29     -1.59    0.000e+00           0   0.000e+00
Pentahydrite         Element not present.    0.000e+00           0   0.000e+00
Picromerite          Element not present.    0.000e+00           0   0.000e+00
Polyhalite           Element not present.    0.000e+00           0   0.000e+00
Starkeyite           Element not present.    0.000e+00           0   0.000e+00
Sylvite              Element not present.    0.000e+00           0   0.000e+00
Syngenite            Element not present.    0.000e+00           0   0.000e+00
Tachyhydrite         Element not present.    0.000e+00           0   0.000e+00
Thenardite       -4.97    -5.29     -0.32    0.000e+00           0   0.000e+00

-----------------------------Solution composition------------------------------

	Elements           Molality       Moles

	Na                3.265e-02   1.400e-02
	S                 1.633e-02   7.000e-03

----------------------------Description of solution----------------------------

                                       pH  =   7.001      Charge balance
                                       pe  =   4.000      Adjusted to redox equilibrium
      Specific Conductance (µS/cm,  -0°C)  = 1704
                          Density (g/cm³)  =   1.00210
                               Volume (L)  =   0.42887
                        Activity of water  =   0.999
                 Ionic strength (mol/kgw)  =   4.898e-02
                       Mass of water (kg)  =   4.288e-01
                 Total alkalinity (eq/kg)  =   2.909e-09
                         Temperature (°C)  =  -0.08
                  Electrical balance (eq)  =  -1.247e-09
 Percent error, 100*(Cat-|An|)/(Cat+|An|)  =  -0.00
                               Iterations  =   8 (1412 overall)
                         Gamma iterations  =   1
                      Osmotic coefficient  =   0.87842
                         Density of water  =   0.99983
                                  Total H  = 4.760187e+01
                                  Total O  = 2.382894e+01

----------------------------Distribution of species----------------------------

                                                    Unscaled  Unscaled
                                Unscaled       Log       Log       Log    mole V
   Species          Molality    Activity  Molality  Activity     Gamma    cm³/mol

   OH-             1.265e-07   1.003e-07    -6.898    -6.999    -0.101     -5.99
   H+              1.235e-07   9.967e-08    -6.908    -7.001    -0.093      0.00
   H2O             5.551e+01   9.992e-01     1.744    -0.000     0.000     18.02
Na            3.265e-02
   Na+             3.265e-02   2.682e-02    -1.486    -1.572    -0.085     -3.24
S(6)          1.633e-02
   SO4-2           1.633e-02   7.170e-03    -1.787    -2.144    -0.357      9.47

------------------------------Saturation indices-------------------------------

  Phase               SI** log IAP   log K(273 K,   1 atm)

  Ice(s)            0.00     -0.00   -0.00  H2O
  Mirabilite       -2.80     -5.29   -2.50  Na2SO4:10H2O
  Na2SO4:7H2O      -3.70     -5.29   -1.59  Na2SO4:7H2O
  Thenardite       -4.97     -5.29   -0.32  Na2SO4

**For a gas, SI = log10(fugacity). Fugacity = pressure * phi / 1 atm.
  For ideal gases, phi = 1.

Reaction step 10.

Using solution 1.	
Using pure phase assemblage 1.	
Using temperature 1.	

-------------------------------Phase assemblage--------------------------------

                                                      Moles in assemblage
Phase               SI  log IAP  log K(T, P)   Initial       Final       Delta

Anhydrite            Element not present.    0.000e+00           0   0.000e+00
Antarcticite         Element not present.    0.000e+00           0   0.000e+00
Arcanite             Element not present.    0.000e+00           0   0.000e+00
Bassanite            Element not present.    0.000e+00           0   0.000e+00
Bischofite           Element not present.    0.000e+00           0   0.000e+00
Bloedite             Element not present.    0.000e+00           0   0.000e+00
Carnallite           Element not present.    0.000e+00           0   0.000e+00
Epsomite             Element not present.    0.000e+00           0   0.000e+00
Glaserite            Element not present.    0.000e+00           0   0.000e+00
Glauberite           Element not present.    0.000e+00           0   0.000e+00
Gypsum               Element not present.    0.000e+00           0   0.000e+00
Halite               Element not present.    0.000e+00           0   0.000e+00
Hexahydrite          Element not present.    0.000e+00           0   0.000e+00
Hydrohalite          Element not present.    0.000e+00           0   0.000e+00
Ice(s)            0.00    -0.00     -0.00    0.000e+00   3.449e+01   3.449e+01
Kainite              Element not present.    0.000e+00           0   0.000e+00
Kieserite            Element not present.    0.000e+00           0   0.000e+00
Labile_Salt          Element not present.    0.000e+00           0   0.000e+00
Langbeinite          Element not present.    0.000e+00           0   0.000e+00
Leonite              Element not present.    0.000e+00           0   0.000e+00
Meridianiite         Element not present.    0.000e+00           0   0.000e+00
MgCl2:12H2O          Element not present.    0.000e+00           0   0.000e+00
MgCl2:8H2O           Element not present.    0.000e+00           0   0.000e+00
Mirabilite       -2.66    -5.16     -2.50    0.000e+00           0   0.000e+00
Na2SO4:7H2O      -3.57    -5.16     -1.59    0.000e+00           0   0.000e+00
Pentahydrite         Element not present.    0.000e+00           0   0.000e+00
Picromerite          Element not present.    0.000e+00           0   0.000e+00
Polyhalite           Element not present.    0.000e+00           0   0.000e+00
Starkeyite           Element not present.    0.000e+00           0   0.000e+00
Sylvite              Element not present.    0.000e+00           0   0.000e+00
Syngenite            Element not present.    0.000e+00           0   0.000e+00
Tachyhydrite         Element not present.    0.000e+00           0   0.000e+00
Thenardite       -4.83    -5.15     -0.32    0.000e+00           0   0.000e+00

-----------------------------Solution composition------------------------------

	Elements           Molality       Moles

	Na                3.697e-02   1.400e-02
	S                 1.848e-02   7.000e-03

----------------------------Description of solution----------------------------

                                       pH  =   7.002      Charge balance
                                       pe  =   4.000      Adjusted to redox equilibrium
      Specific Conductance (µS/cm,  -0°C)  = 1908
                          Density (g/cm³)  =   1.00240
                               Volume (L)  =   0.37879
                        Activity of water  =   0.999
                 Ionic strength (mol/kgw)  =   5.545e-02
                       Mass of water (kg)  =   3.787e-01
                 Total alkalinity (eq/kg)  =   3.293e-09
                         Temperature (°C)  =  -0.09
                  Electrical balance (eq)  =  -1.247e-09
 Percent error, 100*(Cat-|An|)/(Cat+|An|)  =  -0.00
                               Iterations  =   9 (1413 overall)
                         Gamma iterations  =   1
                      Osmotic coefficient  =   0.87284
                         Density of water  =   0.99983
                                  Total H  = 4.204325e+01
                                  Total O  = 2.104963e+01

----------------------------Distribution of species----------------------------

                                                    Unscaled  Unscaled
                                Unscaled       Log       Log       Log    mole V
   Species          Molality    Activity  Molality  Activity     Gamma    cm³/mol

   OH-             1.282e-07   1.003e-07    -6.892    -6.999    -0.107     -5.97
   H+              1.249e-07   9.960e-08    -6.903    -7.002    -0.098      0.00
   H2O             5.551e+01   9.991e-01     1.744    -0.000     0.000     18.02
Na            3.697e-02
   Na+             3.697e-02   3.007e-02    -1.432    -1.522    -0.090     -3.21
S(6)          1.848e-02
   SO4-2           1.848e-02   7.774e-03    -1.733    -2.109    -0.376      9.56

------------------------------Saturation indices-------------------------------

  Phase               SI** log IAP   log K(273 K,   1 atm)

  Ice(s)            0.00     -0.00   -0.00  H2O
  Mirabilite       -2.66     -5.16   -2.50  Na2SO4:10H2O
  Na2SO4:7H2O      -3.57     -5.16   -1.59  Na2SO4:7H2O
  Thenardite       -4.83     -5.15   -0.32  Na2SO4

**For a gas, SI = log10(fugacity). Fugacity = pressure * phi / 1 atm.
  For ideal gases, phi = 1.

Reaction step 11.

Using solution 1.	
Using pure phase assemblage 1.	
Using temperature 1.	

-------------------------------Phase assemblage--------------------------------

                                                      Moles in assemblage
Phase               SI  log IAP  log K(T, P)   Initial       Final       Delta

Anhydrite            Element not present.    0.000e+00           0   0.000e+00
Antarcticite         Element not present.    0.000e+00           0   0.000e+00
Arcanite             Element not present.    0.000e+00           0   0.000e+00
Bassanite            Element not present.    0.000e+00           0   0.000e+00
Bischofite           Element not present.    0.000e+00           0   0.000e+00
Bloedite             Element not present.    0.000e+00           0   0.000e+00
Carnallite           Element not present.    0.000e+00           0   0.000e+00
Epsomite             Element not present.    0.000e+00           0   0.000e+00
Glaserite            Element not present.    0.000e+00           0   0.000e+00
Glauberite           Element not present.    0.000e+00           0   0.000e+00
Gypsum               Element not present.    0.000e+00           0   0.000e+00
Halite               Element not present.    0.000e+00           0   0.000e+00
Hexahydrite          Element not present.    0.000e+00           0   0.000e+00
Hydrohalite          Element not present.    0.000e+00           0   0.000e+00
Ice(s)            0.00    -0.00     -0.00    0.000e+00   3.670e+01   3.670e+01
Kainite              Element not present.    0.000e+00           0   0.000e+00
Kieserite            Element not present.    0.000e+00           0   0.000e+00
Labile_Salt          Element not present.    0.000e+00           0   0.000e+00
Langbeinite          Element not present.    0.000e+00           0   0.000e+00
Leonite              Element not present.    0.000e+00           0   0.000e+00
Meridianiite         Element not present.    0.000e+00           0   0.000e+00
MgCl2:12H2O          Element not present.    0.000e+00           0   0.000e+00
MgCl2:8H2O           Element not present.    0.000e+00           0   0.000e+00
Mirabilite       -2.54    -5.04     -2.50    0.000e+00           0   0.000e+00
Na2SO4:7H2O      -3.45    -5.04     -1.59    0.000e+00           0   0.000e+00
Pentahydrite         Element not present.    0.000e+00           0   0.000e+00
Picromerite          Element not present.    0.000e+00           0   0.000e+00
Polyhalite           Element not present.    0.000e+00           0   0.000e+00
Starkeyite           Element not present.    0.000e+00           0   0.000e+00
Sylvite              Element not present.    0.000e+00           0   0.000e+00
Syngenite            Element not present.    0.000e+00           0   0.000e+00
Tachyhydrite         Element not present.    0.000e+00           0   0.000e+00
Thenardite       -4.71    -5.03     -0.32    0.000e+00           0   0.000e+00

-----------------------------Solution composition------------------------------

	Elements           Molality       Moles

	Na                4.132e-02   1.400e-02
	S                 2.066e-02   7.000e-03

----------------------------Description of solution----------------------------

                                       pH  =   7.002      Charge balance
                                       pe  =   4.000      Adjusted to redox equilibrium
      Specific Conductance (µS/cm,  -0°C)  = 2110
                          Density (g/cm³)  =   1.00270
                               Volume (L)  =   0.33890
                        Activity of water  =   0.999
                 Ionic strength (mol/kgw)  =   6.198e-02
                       Mass of water (kg)  =   3.388e-01
                 Total alkalinity (eq/kg)  =   3.681e-09
                         Temperature (°C)  =  -0.10
                  Electrical balance (eq)  =  -1.247e-09
 Percent error, 100*(Cat-|An|)/(Cat+|An|)  =  -0.00
                               Iterations  =   9 (1413 overall)
                         Gamma iterations  =   1
                      Osmotic coefficient  =   0.86770
                         Density of water  =   0.99983
                                  Total H  = 3.761567e+01
                                  Total O  = 1.883584e+01

----------------------------Distribution of species----------------------------

                                                    Unscaled  Unscaled
                                Unscaled       Log       Log       Log    mole V
   Species          Molality    Activity  Molality  Activity     Gamma    cm³/mol

   OH-             1.299e-07   1.004e-07    -6.886    -6.998    -0.112     -5.95
   H+              1.262e-07   9.952e-08    -6.899    -7.002    -0.103      0.00
   H2O             5.551e+01   9.990e-01     1.744    -0.000     0.000     18.02
Na            4.132e-02
   Na+             4.132e-02   3.330e-02    -1.384    -1.478    -0.094     -3.19
S(6)          2.066e-02
   SO4-2           2.066e-02   8.344e-03    -1.685    -2.079    -0.394      9.63

------------------------------Saturation indices-------------------------------

  Phase               SI** log IAP   log K(273 K,   1 atm)

  Ice(s)            0.00     -0.00   -0.00  H2O
  Mirabilite       -2.54     -5.04   -2.50  Na2SO4:10H2O
  Na2SO4:7H2O      -3.45     -5.04   -1.59  Na2SO4:7H2O
  Thenardite       -4.71     -5.03   -0.32  Na2SO4

**For a gas, SI = log10(fugacity). Fugacity = pressure * phi / 1 atm.
  For ideal gases, phi = 1.

Reaction step 12.

Using solution 1.	
Using pure phase assemblage 1.	
Using temperature 1.	

-------------------------------Phase assemblage--------------------------------

                                                      Moles in assemblage
Phase               SI  log IAP  log K(T, P)   Initial       Final       Delta

Anhydrite            Element not present.    0.000e+00           0   0.000e+00
Antarcticite         Element not present.    0.000e+00           0   0.000e+00
Arcanite             Element not present.    0.000e+00           0   0.000e+00
Bassanite            Element not present.    0.000e+00           0   0.000e+00
Bischofite           Element not present.    0.000e+00           0   0.000e+00
Bloedite             Element not present.    0.000e+00           0   0.000e+00
Carnallite           Element not present.    0.000e+00           0   0.000e+00
Epsomite             Element not present.    0.000e+00           0   0.000e+00
Glaserite            Element not present.    0.000e+00           0   0.000e+00
Glauberite           Element not present.    0.000e+00           0   0.000e+00
Gypsum               Element not present.    0.000e+00           0   0.000e+00
Halite               Element not present.    0.000e+00           0   0.000e+00
Hexahydrite          Element not present.    0.000e+00           0   0.000e+00
Hydrohalite          Element not present.    0.000e+00           0   0.000e+00
Ice(s)            0.00    -0.00     -0.00    0.000e+00   3.851e+01   3.851e+01
Kainite              Element not present.    0.000e+00           0   0.000e+00
Kieserite            Element not present.    0.000e+00           0   0.000e+00
Labile_Salt          Element not present.    0.000e+00           0   0.000e+00
Langbeinite          Element not present.    0.000e+00           0   0.000e+00
Leonite              Element not present.    0.000e+00           0   0.000e+00
Meridianiite         Element not present.    0.000e+00           0   0.000e+00
MgCl2:12H2O          Element not present.    0.000e+00           0   0.000e+00
MgCl2:8H2O           Element not present.    0.000e+00           0   0.000e+00
Mirabilite       -2.43    -4.93     -2.50    0.000e+00           0   0.000e+00
Na2SO4:7H2O      -3.34    -4.93     -1.59    0.000e+00           0   0.000e+00
Pentahydrite         Element not present.    0.000e+00           0   0.000e+00
Picromerite          Element not present.    0.000e+00           0   0.000e+00
Polyhalite           Element not present.    0.000e+00           0   0.000e+00
Starkeyite           Element not present.    0.000e+00           0   0.000e+00
Sylvite              Element not present.    0.000e+00           0   0.000e+00
Syngenite            Element not present.    0.000e+00           0   0.000e+00
Tachyhydrite         Element not present.    0.000e+00           0   0.000e+00
Thenardite       -4.60    -4.93     -0.32    0.000e+00           0   0.000e+00

-----------------------------Solution composition------------------------------

	Elements           Molality       Moles

	Na                4.570e-02   1.400e-02
	S                 2.285e-02   7.000e-03

----------------------------Description of solution----------------------------

                                       pH  =   7.002      Charge balance
                                       pe  =   4.000      Adjusted to redox equilibrium
      Specific Conductance (µS/cm,  -0°C)  = 2312
                          Density (g/cm³)  =   1.00300
                               Volume (L)  =   0.30640
                        Activity of water  =   0.999
                 Ionic strength (mol/kgw)  =   6.855e-02
                       Mass of water (kg)  =   3.063e-01
                 Total alkalinity (eq/kg)  =   4.071e-09
                         Temperature (°C)  =  -0.11
                  Electrical balance (eq)  =  -1.247e-09
 Percent error, 100*(Cat-|An|)/(Cat+|An|)  =  -0.00
                               Iterations  =  11 (1415 overall)
                         Gamma iterations  =   1
                      Osmotic coefficient  =   0.86293
                         Density of water  =   0.99983
                                  Total H  = 3.400783e+01
                                  Total O  = 1.703192e+01

[...]
Pentahydrite         Element not present.    0.000e+00           0   0.000e+00
Picromerite          Element not present.    0.000e+00           0   0.000e+00
Polyhalite           Element not present.    0.000e+00           0   0.000e+00
Starkeyite           Element not present.    0.000e+00           0   0.000e+00
Sylvite              Element not present.    0.000e+00           0   0.000e+00
Syngenite            Element not present.    0.000e+00           0   0.000e+00
Tachyhydrite         Element not present.    0.000e+00           0   0.000e+00
Thenardite       -2.18    -2.51     -0.33    0.000e+00           0   0.000e+00

-----------------------------Solution composition------------------------------

	Elements           Molality       Moles

	Na                5.903e-01   1.400e-02
	S                 2.952e-01   7.000e-03

----------------------------Description of solution----------------------------

                                       pH  =   7.040      Charge balance
                                       pe  =   4.000      Adjusted to redox equilibrium
      Specific Conductance (µS/cm,  -1°C)  = 18999
                          Density (g/cm³)  =   1.03894
                               Volume (L)  =   0.02378
                        Activity of water  =   0.989
                 Ionic strength (mol/kgw)  =   8.855e-01
                       Mass of water (kg)  =   2.372e-02
                 Total alkalinity (eq/kg)  =   5.259e-08
                         Temperature (°C)  =  -1.15
                  Electrical balance (eq)  =  -1.247e-09
 Percent error, 100*(Cat-|An|)/(Cat+|An|)  =  -0.00
                               Iterations  =  24 (1428 overall)
                         Gamma iterations  =   1
                      Osmotic coefficient  =   0.69894
                         Density of water  =   0.99975
                                  Total H  = 2.632884e+00
                                  Total O  = 1.344442e+00

----------------------------Distribution of species----------------------------

                                                    Unscaled  Unscaled
                                Unscaled       Log       Log       Log    mole V
   Species          Molality    Activity  Molality  Activity     Gamma    cm³/mol

   OH-             2.298e-07   1.085e-07    -6.639    -6.965    -0.326     -4.70
   H+              1.773e-07   9.119e-08    -6.751    -7.040    -0.289      0.00
   H2O             5.551e+01   9.889e-01     1.744    -0.005     0.000     18.02
Na            5.903e-01
   Na+             5.903e-01   3.430e-01    -0.229    -0.465    -0.236     -2.18
S(6)          2.952e-01
   SO4-2           2.952e-01   2.631e-02    -0.530    -1.580    -1.050     13.25

------------------------------Saturation indices-------------------------------

  Phase               SI** log IAP   log K(272 K,   1 atm)

  Ice(s)            0.00     -0.00   -0.00  H2O
  Mirabilite       -0.00     -2.56   -2.55  Na2SO4:10H2O
  Na2SO4:7H2O      -0.91     -2.54   -1.63  Na2SO4:7H2O
  Thenardite       -2.18     -2.51   -0.33  Na2SO4

**For a gas, SI = log10(fugacity). Fugacity = pressure * phi / 1 atm.
  For ideal gases, phi = 1.

Reaction step 117.

Using solution 1.	
Using pure phase assemblage 1.	
Using temperature 1.	

-------------------------------Phase assemblage--------------------------------

                                                      Moles in assemblage
Phase               SI  log IAP  log K(T, P)   Initial       Final       Delta

Anhydrite            Element not present.    0.000e+00           0   0.000e+00
Antarcticite         Element not present.    0.000e+00           0   0.000e+00
Arcanite             Element not present.    0.000e+00           0   0.000e+00
Bassanite            Element not present.    0.000e+00           0   0.000e+00
Bischofite           Element not present.    0.000e+00           0   0.000e+00
Bloedite             Element not present.    0.000e+00           0   0.000e+00
Carnallite           Element not present.    0.000e+00           0   0.000e+00
Epsomite             Element not present.    0.000e+00           0   0.000e+00
Glaserite            Element not present.    0.000e+00           0   0.000e+00
Glauberite           Element not present.    0.000e+00           0   0.000e+00
Gypsum               Element not present.    0.000e+00           0   0.000e+00
Halite               Element not present.    0.000e+00           0   0.000e+00
Hexahydrite          Element not present.    0.000e+00           0   0.000e+00
Hydrohalite          Element not present.    0.000e+00           0   0.000e+00
Ice(s)            0.00    -0.00     -0.00    0.000e+00   5.544e+01   5.544e+01
Kainite              Element not present.    0.000e+00           0   0.000e+00
Kieserite            Element not present.    0.000e+00           0   0.000e+00
Labile_Salt          Element not present.    0.000e+00           0   0.000e+00
Langbeinite          Element not present.    0.000e+00           0   0.000e+00
Leonite              Element not present.    0.000e+00           0   0.000e+00
Meridianiite         Element not present.    0.000e+00           0   0.000e+00
MgCl2:12H2O          Element not present.    0.000e+00           0   0.000e+00
MgCl2:8H2O           Element not present.    0.000e+00           0   0.000e+00
Mirabilite        0.00    -2.56     -2.56    0.000e+00   7.000e-03   7.000e-03
Na2SO4:7H2O      -0.91    -2.54     -1.63    0.000e+00           0   0.000e+00
Pentahydrite         Element not present.    0.000e+00           0   0.000e+00
Picromerite          Element not present.    0.000e+00           0   0.000e+00
Polyhalite           Element not present.    0.000e+00           0   0.000e+00
Starkeyite           Element not present.    0.000e+00           0   0.000e+00
Sylvite              Element not present.    0.000e+00           0   0.000e+00
Syngenite            Element not present.    0.000e+00           0   0.000e+00
Tachyhydrite         Element not present.    0.000e+00           0   0.000e+00
Thenardite       -2.18    -2.51     -0.33    0.000e+00           0   0.000e+00

-----------------------------Solution composition------------------------------

	Elements           Molality       Moles

	Na                5.935e-01   2.180e-07
	S                 2.968e-01   1.090e-07

----------------------------Description of solution----------------------------

                                       pH  =  11.209      Charge balance
                                       pe  =   4.000      Adjusted to redox equilibrium
      Specific Conductance (µS/cm,  -1°C)  = 19266
                          Density (g/cm³)  =   1.03922
                               Volume (L)  =   0.00000
                        Activity of water  =   0.989
                 Ionic strength (mol/kgw)  =   8.920e-01
                       Mass of water (kg)  =   3.673e-07
                 Total alkalinity (eq/kg)  =   3.396e-03
                         Temperature (°C)  =  -1.16
                  Electrical balance (eq)  =  -1.247e-09
 Percent error, 100*(Cat-|An|)/(Cat+|An|)  =  -0.29
                               Iterations  =  88 (1492 overall)
                         Gamma iterations  =   1
                      Osmotic coefficient  =   0.69856
                         Density of water  =   0.99975
                                  Total H  = 4.077495e-05
                                  Total O  = 2.082406e-05

----------------------------Distribution of species----------------------------

                                                    Unscaled  Unscaled
                                Unscaled       Log       Log       Log    mole V
   Species          Molality    Activity  Molality  Activity     Gamma    cm³/mol

   OH-             3.396e-03   1.600e-03    -2.469    -2.796    -0.327     -4.70
   H+              1.203e-11   6.181e-12   -10.920   -11.209    -0.289      0.00
   H2O             5.551e+01   9.888e-01     1.744    -0.005     0.000     18.02
Na            5.935e-01
   Na+             5.935e-01   3.444e-01    -0.227    -0.463    -0.236     -2.18
S(6)          2.968e-01
   SO4-2           2.968e-01   2.627e-02    -0.528    -1.581    -1.053     13.27

------------------------------Saturation indices-------------------------------

  Phase               SI** log IAP   log K(271 K,   1 atm)

  Ice(s)            0.00     -0.00   -0.00  H2O
  Mirabilite        0.00     -2.56   -2.56  Na2SO4:10H2O
  Na2SO4:7H2O      -0.91     -2.54   -1.63  Na2SO4:7H2O
  Thenardite       -2.18     -2.51   -0.33  Na2SO4

**For a gas, SI = log10(fugacity). Fugacity = pressure * phi / 1 atm.
  For ideal gases, phi = 1.

Reaction step 118.

Using solution 1.	
Using pure phase assemblage 1.	
Using temperature 1.	

-------------------------------Phase assemblage--------------------------------

                                                      Moles in assemblage
Phase               SI  log IAP  log K(T, P)   Initial       Final       Delta

Anhydrite            Element not present.    0.000e+00           0   0.000e+00
Antarcticite         Element not present.    0.000e+00           0   0.000e+00
Arcanite             Element not present.    0.000e+00           0   0.000e+00
Bassanite            Element not present.    0.000e+00           0   0.000e+00
Bischofite           Element not present.    0.000e+00           0   0.000e+00
Bloedite             Element not present.    0.000e+00           0   0.000e+00
Carnallite           Element not present.    0.000e+00           0   0.000e+00
Epsomite             Element not present.    0.000e+00           0   0.000e+00
Glaserite            Element not present.    0.000e+00           0   0.000e+00
Glauberite           Element not present.    0.000e+00           0   0.000e+00
Gypsum               Element not present.    0.000e+00           0   0.000e+00
Halite               Element not present.    0.000e+00           0   0.000e+00
Hexahydrite          Element not present.    0.000e+00           0   0.000e+00
Hydrohalite          Element not present.    0.000e+00           0   0.000e+00
Ice(s)            0.00    -0.00     -0.00    0.000e+00   5.544e+01   5.544e+01
Kainite              Element not present.    0.000e+00           0   0.000e+00
Kieserite            Element not present.    0.000e+00           0   0.000e+00
Labile_Salt          Element not present.    0.000e+00           0   0.000e+00
Langbeinite          Element not present.    0.000e+00           0   0.000e+00
Leonite              Element not present.    0.000e+00           0   0.000e+00
Meridianiite         Element not present.    0.000e+00           0   0.000e+00
MgCl2:12H2O          Element not present.    0.000e+00           0   0.000e+00
MgCl2:8H2O           Element not present.    0.000e+00           0   0.000e+00
Mirabilite       -0.00    -2.56     -2.56    0.000e+00   7.000e-03   7.000e-03
Na2SO4:7H2O      -0.91    -2.54     -1.63    0.000e+00           0   0.000e+00
Pentahydrite         Element not present.    0.000e+00           0   0.000e+00
Picromerite          Element not present.    0.000e+00           0   0.000e+00
Polyhalite           Element not present.    0.000e+00           0   0.000e+00
Starkeyite           Element not present.    0.000e+00           0   0.000e+00
Sylvite              Element not present.    0.000e+00           0   0.000e+00
Syngenite            Element not present.    0.000e+00           0   0.000e+00
Tachyhydrite         Element not present.    0.000e+00           0   0.000e+00
Thenardite       -2.18    -2.51     -0.33    0.000e+00           0   0.000e+00

-----------------------------Solution composition------------------------------

	Elements           Molality       Moles

	Na                5.951e-01   8.372e-08
	S                 2.975e-01   4.186e-08

----------------------------Description of solution----------------------------

                                       pH  =  11.625      Charge balance
                                       pe  =   4.000      Adjusted to redox equilibrium
      Specific Conductance (µS/cm,  -1°C)  = 19617
                          Density (g/cm³)  =   1.03943
                               Volume (L)  =   0.00000
                        Activity of water  =   0.989
                 Ionic strength (mol/kgw)  =   8.970e-01
                       Mass of water (kg)  =   1.407e-07
                 Total alkalinity (eq/kg)  =   8.865e-03
                         Temperature (°C)  =  -1.17
                  Electrical balance (eq)  =  -1.247e-09
 Percent error, 100*(Cat-|An|)/(Cat+|An|)  =  -0.74
                               Iterations  =  94 (1498 overall)
                         Gamma iterations  =   1
                      Osmotic coefficient  =   0.69850
                         Density of water  =   0.99975
                                  Total H  = 1.562100e-05
                                  Total O  = 7.978570e-06

----------------------------Distribution of species----------------------------

                                                    Unscaled  Unscaled
                                Unscaled       Log       Log       Log    mole V
   Species          Molality    Activity  Molality  Activity     Gamma    cm³/mol

   OH-             8.865e-03   4.172e-03    -2.052    -2.380    -0.327     -4.69
   H+              4.618e-12   2.370e-12   -11.336   -11.625    -0.290      0.00
   H2O             5.551e+01   9.887e-01     1.744    -0.005     0.000     18.02
Na            5.951e-01
   Na+             5.951e-01   3.449e-01    -0.225    -0.462    -0.237     -2.18
S(6)          2.975e-01
   SO4-2           2.975e-01   2.619e-02    -0.526    -1.582    -1.055     13.28

------------------------------Saturation indices-------------------------------

  Phase               SI** log IAP   log K(271 K,   1 atm)

  Ice(s)            0.00     -0.00   -0.00  H2O
  Mirabilite       -0.00     -2.56   -2.56  Na2SO4:10H2O
  Na2SO4:7H2O      -0.91     -2.54   -1.63  Na2SO4:7H2O
  Thenardite       -2.18     -2.51   -0.33  Na2SO4

**For a gas, SI = log10(fugacity). Fugacity = pressure * phi / 1 atm.
  For ideal gases, phi = 1.

Reaction step 119.

ERROR:               Ice(s) Pure phase has not converged. 	Residual: -1.109648e-02

Using solution 1.	
Using pure phase assemblage 1.	
Using temperature 1.	

-------------------------------Phase assemblage--------------------------------

                                                      Moles in assemblage
Phase               SI  log IAP  log K(T, P)   Initial       Final       Delta

Anhydrite            Element not present.    0.000e+00           0   0.000e+00
Antarcticite         Element not present.    0.000e+00           0   0.000e+00
Arcanite             Element not present.    0.000e+00           0   0.000e+00
Bassanite            Element not present.    0.000e+00           0   0.000e+00
Bischofite           Element not present.    0.000e+00           0   0.000e+00
Bloedite             Element not present.    0.000e+00           0   0.000e+00
Carnallite           Element not present.    0.000e+00           0   0.000e+00
Epsomite             Element not present.    0.000e+00           0   0.000e+00
Glaserite            Element not present.    0.000e+00           0   0.000e+00
Glauberite           Element not present.    0.000e+00           0   0.000e+00
Gypsum               Element not present.    0.000e+00           0   0.000e+00
Halite               Element not present.    0.000e+00           0   0.000e+00
Hexahydrite          Element not present.    0.000e+00           0   0.000e+00
Hydrohalite          Element not present.    0.000e+00           0   0.000e+00
Ice(s)            0.00    -0.00     -0.00    0.000e+00           0   0.000e+00
Kainite              Element not present.    0.000e+00           0   0.000e+00
Kieserite            Element not present.    0.000e+00           0   0.000e+00
Labile_Salt          Element not present.    0.000e+00           0   0.000e+00
Langbeinite          Element not present.    0.000e+00           0   0.000e+00
Leonite              Element not present.    0.000e+00           0   0.000e+00
Meridianiite         Element not present.    0.000e+00           0   0.000e+00
MgCl2:12H2O          Element not present.    0.000e+00           0   0.000e+00
MgCl2:8H2O           Element not present.    0.000e+00           0   0.000e+00
Mirabilite       -3.31    -5.86     -2.56    0.000e+00           0   0.000e+00
Na2SO4:7H2O      -4.23    -5.86     -1.63    0.000e+00           0   0.000e+00
Pentahydrite         Element not present.    0.000e+00           0   0.000e+00
Picromerite          Element not present.    0.000e+00           0   0.000e+00
Polyhalite           Element not present.    0.000e+00           0   0.000e+00
Starkeyite           Element not present.    0.000e+00           0   0.000e+00
Sylvite              Element not present.    0.000e+00           0   0.000e+00
Syngenite            Element not present.    0.000e+00           0   0.000e+00
Tachyhydrite         Element not present.    0.000e+00           0   0.000e+00
Thenardite       -5.54    -5.86     -0.33    0.000e+00           0   0.000e+00

-----------------------------Solution composition------------------------------

	Elements           Molality       Moles

	Na                1.400e-02   1.400e-02
	S                 7.000e-03   7.000e-03

----------------------------Description of solution----------------------------

                                       pH  =   7.003      Charge balance
                                       pe  =   4.000      Adjusted to redox equilibrium
      Specific Conductance (µS/cm,  -1°C)  = 747
                          Density (g/cm³)  =   1.00073
                               Volume (L)  =   1.00026
                        Activity of water  =   1.000
                 Ionic strength (mol/kgw)  =   2.100e-02
                       Mass of water (kg)  =   1.000e+00
                 Total alkalinity (eq/kg)  =   1.247e-09
                         Temperature (°C)  =  -1.18
                  Electrical balance (eq)  =  -1.247e-09
 Percent error, 100*(Cat-|An|)/(Cat+|An|)  =  -0.00
                               Iterations  = 401 (3209 overall)
                         Gamma iterations  =   0
                      Osmotic coefficient  =   0.70837
                         Density of water  =   0.99975
                                  Total H  = 1.110186e+02
                                  Total O  = 5.553730e+01

----------------------------Distribution of species----------------------------

                                                    Unscaled  Unscaled
                                Unscaled       Log       Log       Log    mole V
   Species          Molality    Activity  Molality  Activity     Gamma    cm³/mol

   OH-             1.006e-07   1.006e-07    -6.997    -6.997     0.000     -6.24
   H+              9.936e-08   9.936e-08    -7.003    -7.003     0.000      0.00
   H2O             5.551e+01   9.997e-01     1.744    -0.000     0.000     18.02
Na            1.400e-02
   Na+             1.400e-02   1.400e-02    -1.854    -1.854     0.000     -3.51
S(6)          7.000e-03
   SO4-2           7.000e-03   7.000e-03    -2.155    -2.155     0.000      8.54

------------------------------Saturation indices-------------------------------

  Phase               SI** log IAP   log K(271 K,   1 atm)

  Ice(s)            0.00     -0.00   -0.00  H2O
  Mirabilite       -3.31     -5.86   -2.56  Na2SO4:10H2O
  Na2SO4:7H2O      -4.23     -5.86   -1.63  Na2SO4:7H2O
  Thenardite       -5.54     -5.86   -0.33  Na2SO4

**For a gas, SI = log10(fugacity). Fugacity = pressure * phi / 1 atm.
  For ideal gases, phi = 1.

ERROR: Numerical method failed on all combinations of convergence parameters, cell/soln/mix 1
-------------------------------
End of Run after 7.773 Seconds.
-------------------------------

